@<TRIPOS>MOLECULE
AIU
   36    38     1     0     0
SMALL
abcg2


@<TRIPOS>ATOM
      1 O            1.1150     0.0220     0.0180 oh         1 AIU      -0.698000
      2 C            2.5260     0.0700     0.0080 c3         1 AIU       0.388500
      3 N            2.9090     1.1980     0.8220 n8         1 AIU      -1.048200
      4 C1           3.0920    -1.2560     0.5440 c3         1 AIU      -0.075400
      5 C2           4.6060    -1.2550     0.4730 c3         1 AIU       0.610000
      6 O1           5.2680    -0.3590    -0.0400 os         1 AIU      -0.555000
      7 O2           5.1740    -2.3620     1.0640 os         1 AIU      -0.513000
      8 C3           6.6260    -2.3500     1.0690 c3         1 AIU       0.413500
      9 N1           7.1040    -1.2640     1.9200 n8         1 AIU      -1.047200
     10 C4           7.2070    -3.6900     1.5870 c3         1 AIU      -0.077400
     11 C5           8.7340    -3.6930     1.5150 c3         1 AIU       0.611000
     12 O3           9.4000    -2.8060     0.9910 os         1 AIU      -0.551000
     13 O4           9.3050    -4.7980     2.1110 os         1 AIU      -0.506000
     14 C6          10.7610    -4.7830     2.1170 c3         1 AIU       0.405500
     15 N2          11.2400    -3.7020     2.9680 n8         1 AIU      -1.058200
     16 C7          11.3400    -6.1170     2.6400 c3         1 AIU      -0.127400
     17 C8          12.8610    -6.1280     2.5850 c3         1 AIU       0.587000
     18 O5          13.5690    -5.2520     2.0980 os         1 AIU      -0.494000
     19 O6          13.4310    -7.2460     3.0970 oh         1 AIU      -0.623000
     20 H            0.8140     0.8580    -0.3780 ho         1 AIU       0.445000
     21 H1           2.8500     0.2180    -1.0290 h2         1 AIU       0.073700
     22 H2           2.5200     1.1000     1.7540 hn         1 AIU       0.418500
     23 H3           2.5700     2.0690     0.4280 hn         1 AIU       0.418500
     24 H4           2.7040    -2.0840    -0.0620 hc         1 AIU       0.095200
     25 H5           2.7500    -1.4160     1.5730 hc         1 AIU       0.095200
     26 H6           6.9710    -2.2110     0.0350 h2         1 AIU       0.098700
     27 H7           6.6750    -1.3220     2.8370 hn         1 AIU       0.437000
     28 H8           6.7870    -0.3890     1.4920 hn         1 AIU       0.437000
     29 H9           6.8250    -4.5160     0.9760 hc         1 AIU       0.095200
     30 H10          6.8770    -3.8590     2.6190 hc         1 AIU       0.095200
     31 H11         11.1130    -4.6510     1.0840 h2         1 AIU       0.092700
     32 H12         10.8310    -3.7590     3.8920 hn         1 AIU       0.439500
     33 H13         10.9350    -2.8220     2.5420 hn         1 AIU       0.439500
     34 H14         10.9680    -6.9480     2.0280 hc         1 AIU       0.094700
     35 H15         11.0060    -6.2940     3.6700 hc         1 AIU       0.094700
     36 H16         12.8270    -7.9290     3.4360 ho         1 AIU       0.485000
@<TRIPOS>BOND
     1     1     2 1   
     2     1    20 1   
     3     2     3 1   
     4     2     4 1   
     5     2    21 1   
     6     3    22 1   
     7     3    23 1   
     8     4     5 1   
     9     4    24 1   
    10     4    25 1   
    11     5     6 1   
    12     5     6 1   
    13     5     7 1   
    14     7     8 1   
    15     8     9 1   
    16     8    10 1   
    17     8    26 1   
    18     9    27 1   
    19     9    28 1   
    20    10    11 1   
    21    10    29 1   
    22    10    30 1   
    23    11    12 1   
    24    11    12 1   
    25    11    13 1   
    26    13    14 1   
    27    14    15 1   
    28    14    16 1   
    29    14    31 1   
    30    15    32 1   
    31    15    33 1   
    32    16    17 1   
    33    16    34 1   
    34    16    35 1   
    35    17    18 1   
    36    17    18 1   
    37    17    19 1   
    38    19    36 1   
@<TRIPOS>SUBSTRUCTURE
     1 AIU         1 TEMP              0 ****  ****    0 ROOT
