@<TRIPOS>MOLECULE
AAU
   48    50     1     0     0
SMALL
abcg2


@<TRIPOS>ATOM
      1 O            8.1850     1.0990     4.2340 oh         1 AAU      -0.666000
      2 C            9.5570     1.1150     3.8200 c3         1 AAU       0.182300
      3 C1           9.8500     2.6030     3.5340 c3         1 AAU      -0.076400
      4 C2           8.9350     3.0460     2.3850 c3         1 AAU      -0.093100
      5 C3           9.8380     0.2770     2.5560 c3         1 AAU      -0.165400
      6 C4           9.1650    -1.0610     2.5160 c3         1 AAU       0.594000
      7 O1           8.4880    -1.4770     3.4490 os         1 AAU      -0.512000
      8 O2           9.1730    -1.6990     1.3130 os         1 AAU      -0.458000
      9 C5           9.9780    -1.2770     0.1870 c3         1 AAU       0.176300
     10 C6           9.3100    -0.1610    -0.6640 c3         1 AAU      -0.091400
     11 C7           7.8440     0.2270    -0.4860 c3         1 AAU      -0.096100
     12 C8          10.2090    -2.4870    -0.7250 c3         1 AAU      -0.136400
     13 C9          11.0170    -3.5900    -0.0770 c3         1 AAU       0.596000
     14 O3          11.4740    -3.4970     1.0570 os         1 AAU      -0.506000
     15 O4          11.1990    -4.7290    -0.8020 os         1 AAU      -0.474000
     16 C10         10.6930    -4.9590    -2.1460 c3         1 AAU       0.173300
     17 C11          9.1530    -5.0480    -2.1430 c3         1 AAU      -0.103400
     18 C12          8.5810    -5.4730    -0.7910 c3         1 AAU      -0.098100
     19 C13         11.2830    -6.2820    -2.6840 c3         1 AAU      -0.135400
     20 C14         12.7970    -6.2320    -2.7150 c3         1 AAU       0.580000
     21 O5          13.4650    -5.2780    -2.3890 os         1 AAU      -0.492000
     22 O6          13.3650    -7.3660    -3.1980 oh         1 AAU      -0.625000
     23 H            7.7760     0.2530     3.9710 ho         1 AAU       0.460000
     24 H1          10.1550     0.7390     4.6570 h1         1 AAU       0.046700
     25 H2           9.6360     3.2130     4.4220 hc         1 AAU       0.052700
     26 H3          10.9050     2.7630     3.2780 hc         1 AAU       0.052700
     27 H4           7.9080     2.7070     2.5650 hc         1 AAU       0.038033
     28 H5           9.2730     2.5970     1.4490 hc         1 AAU       0.038033
     29 H6           8.9130     4.1170     2.2000 hc         1 AAU       0.038033
     30 H7          10.9150     0.2190     2.3740 hc         1 AAU       0.098700
     31 H8           9.3850     0.7640     1.7040 hc         1 AAU       0.098700
     32 H9          10.9660    -0.9470     0.5300 h1         1 AAU       0.076700
     33 H10          9.9080     0.7470    -0.5270 hc         1 AAU       0.055200
     34 H11          9.4240    -0.4160    -1.7230 hc         1 AAU       0.055200
     35 H12          7.6510     0.8000     0.4250 hc         1 AAU       0.043033
     36 H13          7.1610    -0.6250    -0.5250 hc         1 AAU       0.043033
     37 H14          7.5800     0.8940    -1.3180 hc         1 AAU       0.043033
     38 H15         10.7410    -2.1780    -1.6300 hc         1 AAU       0.097700
     39 H16          9.2130    -2.8430    -0.9720 hc         1 AAU       0.097700
     40 H17         11.0370    -4.1450    -2.7970 h1         1 AAU       0.058700
     41 H18          8.7380    -4.0750    -2.4310 hc         1 AAU       0.057700
     42 H19          8.7960    -5.7250    -2.9260 hc         1 AAU       0.057700
     43 H20          8.8520    -4.7920     0.0210 hc         1 AAU       0.045367
     44 H21          8.9530    -6.4630    -0.5140 hc         1 AAU       0.045367
     45 H22          7.4900    -5.4840    -0.8150 hc         1 AAU       0.045367
     46 H23         10.9300    -6.4420    -3.7110 hc         1 AAU       0.096700
     47 H24         10.9650    -7.1250    -2.0620 hc         1 AAU       0.096700
     48 H25         12.7610    -8.0820    -3.4610 ho         1 AAU       0.486000
@<TRIPOS>BOND
     1     1     2 1   
     2     1    23 1   
     3     2     3 1   
     4     2     5 1   
     5     2    24 1   
     6     3     4 1   
     7     3    25 1   
     8     3    26 1   
     9     4    27 1   
    10     4    28 1   
    11     4    29 1   
    12     5     6 1   
    13     5    30 1   
    14     5    31 1   
    15     6     7 1   
    16     6     7 1   
    17     6     8 1   
    18     8     9 1   
    19     9    10 1   
    20     9    12 1   
    21     9    32 1   
    22    10    11 1   
    23    10    33 1   
    24    10    34 1   
    25    11    35 1   
    26    11    36 1   
    27    11    37 1   
    28    12    13 1   
    29    12    38 1   
    30    12    39 1   
    31    13    14 1   
    32    13    14 1   
    33    13    15 1   
    34    15    16 1   
    35    16    17 1   
    36    16    19 1   
    37    16    40 1   
    38    17    18 1   
    39    17    41 1   
    40    17    42 1   
    41    18    43 1   
    42    18    44 1   
    43    18    45 1   
    44    19    20 1   
    45    19    46 1   
    46    19    47 1   
    47    20    21 1   
    48    20    21 1   
    49    20    22 1   
    50    22    48 1   
@<TRIPOS>SUBSTRUCTURE
     1 AAU         1 TEMP              0 ****  ****    0 ROOT
