@<TRIPOS>MOLECULE
AAQ
   57    59     1     0     0
SMALL
abcg2


@<TRIPOS>ATOM
      1 O           13.3310     1.5220    -2.4590 oh         1 AAQ      -0.700000
      2 C           12.5830     2.4210    -3.2440 c3         1 AAQ       0.146300
      3 C1          13.5030     2.8740    -4.3640 c3         1 AAQ      -0.113400
      4 C2          12.7740     3.1820    -5.6680 c3         1 AAQ      -0.087400
      5 C3          13.7740     3.6270    -6.7150 c3         1 AAQ      -0.071400
      6 C4          13.0650     3.9760    -8.0060 c3         1 AAQ      -0.101100
      7 C5          11.9920     3.5840    -2.4070 c3         1 AAQ       0.554000
      8 O1          12.2870     4.7580    -2.6050 os         1 AAQ      -0.474000
      9 O2          10.9150     3.3230    -1.6140 os         1 AAQ      -0.485000
     10 C6          10.3810     2.0250    -1.2750 c3         1 AAQ       0.151300
     11 C7          11.4220     1.3370    -0.4060 c3         1 AAQ      -0.115400
     12 C8          10.9420     0.9920     0.9750 c3         1 AAQ      -0.078400
     13 C9          12.1140     0.3290     1.6890 c3         1 AAQ      -0.080400
     14 C10         11.6680    -0.1020     3.0600 c3         1 AAQ      -0.094100
     15 C11          9.9230     1.2090    -2.4890 c3         1 AAQ       0.549000
     16 O3          10.4270     0.1220    -2.7660 os         1 AAQ      -0.467000
     17 O4           9.0440     1.7890    -3.3470 os         1 AAQ      -0.423000
     18 C12          8.4720     3.1120    -3.2110 c3         1 AAQ       0.136300
     19 C13          6.9510     2.9850    -3.1190 c3         1 AAQ      -0.088400
     20 C14          6.3210     4.3710    -3.1740 c3         1 AAQ      -0.084400
     21 C15          4.8190     4.3710    -3.1900 c3         1 AAQ      -0.077400
     22 C16          4.3660     5.8010    -3.4510 c3         1 AAQ      -0.094100
     23 C17          8.8930     4.0450    -4.3910 c3         1 AAQ       0.563000
     24 O5           8.1740     4.5990    -5.2130 os         1 AAQ      -0.467000
     25 O6          10.1930     4.2700    -4.5060 oh         1 AAQ      -0.683000
     26 H           12.7540     0.7700    -2.2590 ho         1 AAQ       0.519000
     27 H1          11.7740     1.8850    -3.7470 h1         1 AAQ       0.111700
     28 H2          14.0790     3.7440    -4.0390 hc         1 AAQ       0.068200
     29 H3          14.2190     2.0700    -4.5680 hc         1 AAQ       0.068200
     30 H4          12.0740     4.0030    -5.5430 hc         1 AAQ       0.050200
     31 H5          12.2050     2.3080    -6.0180 hc         1 AAQ       0.050200
     32 H6          14.5100     2.8350    -6.8840 hc         1 AAQ       0.038200
     33 H7          14.3070     4.5080    -6.3390 hc         1 AAQ       0.038200
     34 H8          12.5340     3.1060    -8.4040 hc         1 AAQ       0.042033
     35 H9          13.7920     4.3140    -8.7480 hc         1 AAQ       0.042033
     36 H10         12.3350     4.7770    -7.8460 hc         1 AAQ       0.042033
     37 H11          9.4750     2.1840    -0.6760 h1         1 AAQ       0.102700
     38 H12         11.7270     0.3790    -0.8300 hc         1 AAQ       0.083200
     39 H13         12.3060     1.9770    -0.2920 hc         1 AAQ       0.083200
     40 H14         10.0940     0.3030     0.8990 hc         1 AAQ       0.044700
     41 H15         10.6140     1.8920     1.5060 hc         1 AAQ       0.044700
     42 H16         12.9620     1.0230     1.7580 hc         1 AAQ       0.046200
     43 H17         12.4680    -0.5410     1.1190 hc         1 AAQ       0.046200
     44 H18         11.3280     0.7680     3.6290 hc         1 AAQ       0.035700
     45 H19         12.4910    -0.5810     3.5930 hc         1 AAQ       0.035700
     46 H20         10.8390    -0.8100     2.9730 hc         1 AAQ       0.035700
     47 H21          8.7690     3.5750    -2.2680 h1         1 AAQ       0.072700
     48 H22          6.5760     2.3310    -3.9150 hc         1 AAQ       0.075700
     49 H23          6.6790     2.4960    -2.1730 hc         1 AAQ       0.075700
     50 H24          6.5520     4.8640    -4.1100 hc         1 AAQ       0.044700
     51 H25          6.7380     5.0110    -2.3880 hc         1 AAQ       0.044700
     52 H26          4.4330     3.9890    -2.2440 hc         1 AAQ       0.044200
     53 H27          4.4710     3.7260    -4.0050 hc         1 AAQ       0.044200
     54 H28          4.7450     6.4730    -2.6740 hc         1 AAQ       0.035700
     55 H29          3.2780     5.8540    -3.4770 hc         1 AAQ       0.035700
     56 H30          4.7500     6.1670    -4.4130 hc         1 AAQ       0.035700
     57 H31         10.6970     3.6210    -4.0240 ho         1 AAQ       0.545000
@<TRIPOS>BOND
     1     1     2 1   
     2     1    26 1   
     3     2     3 1   
     4     2     7 1   
     5     2    27 1   
     6     3     4 1   
     7     3    28 1   
     8     3    29 1   
     9     4     5 1   
    10     4    30 1   
    11     4    31 1   
    12     5     6 1   
    13     5    32 1   
    14     5    33 1   
    15     6    34 1   
    16     6    35 1   
    17     6    36 1   
    18     7     8 1   
    19     7     8 1   
    20     7     9 1   
    21     9    10 1   
    22    10    11 1   
    23    10    15 1   
    24    10    37 1   
    25    11    12 1   
    26    11    38 1   
    27    11    39 1   
    28    12    13 1   
    29    12    40 1   
    30    12    41 1   
    31    13    14 1   
    32    13    42 1   
    33    13    43 1   
    34    14    44 1   
    35    14    45 1   
    36    14    46 1   
    37    15    16 1   
    38    15    16 1   
    39    15    17 1   
    40    17    18 1   
    41    18    19 1   
    42    18    23 1   
    43    18    47 1   
    44    19    20 1   
    45    19    48 1   
    46    19    49 1   
    47    20    21 1   
    48    20    50 1   
    49    20    51 1   
    50    21    22 1   
    51    21    52 1   
    52    21    53 1   
    53    22    54 1   
    54    22    55 1   
    55    22    56 1   
    56    23    24 1   
    57    23    24 1   
    58    23    25 1   
    59    25    57 1   
@<TRIPOS>SUBSTRUCTURE
     1 AAQ         1 TEMP              0 ****  ****    0 ROOT
