@<TRIPOS>MOLECULE
AHK
   84   104     1     0     0
SMALL
abcg2


@<TRIPOS>ATOM
      1 O            7.8850     1.6010     3.7100 oh         1 AHK      -0.671000
      2 C            9.3130     1.5170     3.6340 c3         1 AHK       0.185300
      3 C1           9.8550     2.9530     3.4590 c3         1 AHK      -0.083400
      4 C2           9.9480     3.4160     1.9880 c3         1 AHK       0.156600
      5 O1          10.5140     4.7230     1.9020 os         1 AHK      -0.403000
      6 C3          10.6100     5.2530     0.6390 c3         1 AHK       0.205000
      7 C4           9.6480     5.1210    -0.3650 c3         1 AHK      -0.174700
      8 C5           9.7620     5.8610    -1.5530 c3         1 AHK      -0.012700
      9 C6          10.8350     6.7380    -1.7430 c3         1 AHK      -0.056000
     10 C7          10.8810     7.5830    -2.9050 c3         1 AHK       0.383600
     11 N           10.8970     8.2780    -3.8310 n3         1 AHK      -0.520600
     12 C8          11.8300     6.8210    -0.7670 c3         1 AHK      -0.019700
     13 C9          11.7130     6.0810     0.4170 c3         1 AHK      -0.126700
     14 C10          9.6760     0.6380     2.4500 c3         1 AHK      -0.168400
     15 C11          9.1250    -0.7540     2.5210 c3         1 AHK       0.597000
     16 O2           8.4470    -1.1380     3.4700 os         1 AHK      -0.509000
     17 O3           9.3070    -1.5390     1.4290 os         1 AHK      -0.462000
     18 C12         10.0540    -1.1360     0.2490 c3         1 AHK       0.182300
     19 C13          9.2190    -0.1410    -0.5880 c3         1 AHK      -0.099400
     20 C14          7.7910    -0.6300    -0.8810 c3         1 AHK       0.152600
     21 O4           7.0960     0.4060    -1.5770 os         1 AHK      -0.401000
     22 C15          5.7910     0.1430    -1.9020 c3         1 AHK       0.203000
     23 C16          4.8780    -0.5250    -1.0850 c3         1 AHK      -0.172700
     24 C17          3.5250    -0.5950    -1.4530 c3         1 AHK      -0.013700
     25 C18          3.0780     0.0080    -2.6330 c3         1 AHK      -0.053000
     26 C19          1.6750     0.0330    -2.9450 c3         1 AHK       0.382600
     27 N1           0.5420     0.0740    -3.1770 n3         1 AHK      -0.517600
     28 C20          4.0020     0.6290    -3.4760 c3         1 AHK      -0.019700
     29 C21          5.3510     0.6980    -3.1060 c3         1 AHK      -0.123700
     30 C22         10.2910    -2.3800    -0.6110 c3         1 AHK      -0.149400
     31 C23         11.0700    -3.4770     0.0660 c3         1 AHK       0.601000
     32 O5          11.4980    -3.3660     1.2090 os         1 AHK      -0.511000
     33 O6          11.2290    -4.6430    -0.6210 os         1 AHK      -0.459000
     34 C24         10.7800    -4.8950    -1.9820 c3         1 AHK       0.181300
     35 C25          9.2460    -5.0170    -2.0140 c3         1 AHK      -0.099400
     36 C26          8.7120    -5.9140    -0.8880 c3         1 AHK       0.154600
     37 O7           7.2870    -5.9210    -0.9490 os         1 AHK      -0.403000
     38 C27          6.6480    -6.6590     0.0130 c3         1 AHK       0.198000
     39 C28          7.0330    -6.7500     1.3520 c3         1 AHK      -0.171700
     40 C29          6.2110    -7.4110     2.2770 c3         1 AHK      -0.013700
     41 C30          4.9980    -7.9770     1.8730 c3         1 AHK      -0.049000
     42 C31          4.1080    -8.5510     2.8450 c3         1 AHK       0.380600
     43 N2           3.3830    -8.9860     3.6360 n3         1 AHK      -0.512600
     44 C32          4.6390    -7.9310     0.5250 c3         1 AHK      -0.019700
     45 C33          5.4600    -7.2710    -0.3970 c3         1 AHK      -0.122700
     46 C34         11.3950    -6.2240    -2.4900 c3         1 AHK      -0.154400
     47 C35         12.9030    -6.1720    -2.5060 c3         1 AHK       0.588000
     48 O8          13.5590    -5.1970    -2.1780 os         1 AHK      -0.512000
     49 O9          13.4950    -7.3050    -2.9470 oh         1 AHK      -0.608000
     50 H            7.5570     0.6910     3.8820 ho         1 AHK       0.468000
     51 H1           9.6770     1.0790     4.5690 h1         1 AHK       0.055700
     52 H2           9.2190     3.6570     4.0110 hc         1 AHK       0.069700
     53 H3          10.8520     3.0150     3.9100 hc         1 AHK       0.069700
     54 H4           8.9450     3.3770     1.5490 h1         1 AHK       0.051200
     55 H5          10.6190     2.7480     1.4350 h1         1 AHK       0.051200
     56 H6           8.7670     4.5020    -0.2370 hc         1 AHK       0.107700
     57 H7           8.9840     5.7800    -2.3110 hc         1 AHK       0.105700
     58 H8          12.6820     7.4850    -0.9000 hc         1 AHK       0.107700
     59 H9          12.4800     6.1730     1.1820 hc         1 AHK       0.116700
     60 H10         10.7570     0.6170     2.2920 hc         1 AHK       0.100200
     61 H11          9.1540     1.1120     1.6320 hc         1 AHK       0.100200
     62 H12         11.0250    -0.7280     0.5490 h1         1 AHK       0.080700
     63 H13          9.1210     0.8240    -0.1010 hc         1 AHK       0.074700
     64 H14          9.7500     0.1180    -1.5100 hc         1 AHK       0.074700
     65 H15          7.2920    -0.8820     0.0610 h1         1 AHK       0.053200
     66 H16          7.8240    -1.5090    -1.5300 h1         1 AHK       0.053200
     67 H17          5.1670    -0.9560    -0.1320 hc         1 AHK       0.105700
     68 H18          2.8170    -1.0920    -0.7920 hc         1 AHK       0.106700
     69 H19          3.6790     1.0910    -4.4070 hc         1 AHK       0.108700
     70 H20          6.0580     1.2050    -3.7580 hc         1 AHK       0.117700
     71 H21         10.7830    -2.1010    -1.5480 hc         1 AHK       0.111200
     72 H22          9.2990    -2.7700    -0.7880 hc         1 AHK       0.111200
     73 H23         11.1330    -4.0800    -2.6270 h1         1 AHK       0.080700
     74 H24          8.7650    -4.0440    -1.9340 hc         1 AHK       0.074200
     75 H25          8.9040    -5.3540    -2.9980 hc         1 AHK       0.074200
     76 H26          9.0610    -5.5370     0.0780 h1         1 AHK       0.052200
     77 H27          9.0750    -6.9340    -1.0360 h1         1 AHK       0.052200
     78 H28          7.9360    -6.2760     1.7250 hc         1 AHK       0.106700
     79 H29          6.5080    -7.4490     3.3250 hc         1 AHK       0.108700
     80 H30          3.7070    -8.3800     0.1840 hc         1 AHK       0.110700
     81 H31          5.1600    -7.2200    -1.4400 hc         1 AHK       0.117700
     82 H32         11.0430    -6.4080    -3.5140 hc         1 AHK       0.095700
     83 H33         11.0920    -7.0610    -1.8540 hc         1 AHK       0.095700
     84 H34         12.9200    -8.0480    -3.2100 ho         1 AHK       0.470000
@<TRIPOS>BOND
     1     1     2 1   
     2     1    50 1   
     3     2     3 1   
     4     2    14 1   
     5     2    51 1   
     6     3     4 1   
     7     3    52 1   
     8     3    53 1   
     9     4     5 1   
    10     4    54 1   
    11     4    55 1   
    12     5     6 1   
    13     6     7 1   
    14     6     7 1   
    15     6    13 1   
    16     7     8 1   
    17     7    56 1   
    18     8     9 1   
    19     8     9 1   
    20     8    57 1   
    21     9    10 1   
    22     9    12 1   
    23    10    11 1   
    24    10    11 1   
    25    10    11 1   
    26    12    13 1   
    27    12    13 1   
    28    12    58 1   
    29    13    59 1   
    30    14    15 1   
    31    14    60 1   
    32    14    61 1   
    33    15    16 1   
    34    15    16 1   
    35    15    17 1   
    36    17    18 1   
    37    18    19 1   
    38    18    30 1   
    39    18    62 1   
    40    19    20 1   
    41    19    63 1   
    42    19    64 1   
    43    20    21 1   
    44    20    65 1   
    45    20    66 1   
    46    21    22 1   
    47    22    23 1   
    48    22    23 1   
    49    22    29 1   
    50    23    24 1   
    51    23    67 1   
    52    24    25 1   
    53    24    25 1   
    54    24    68 1   
    55    25    26 1   
    56    25    28 1   
    57    26    27 1   
    58    26    27 1   
    59    26    27 1   
    60    28    29 1   
    61    28    29 1   
    62    28    69 1   
    63    29    70 1   
    64    30    31 1   
    65    30    71 1   
    66    30    72 1   
    67    31    32 1   
    68    31    32 1   
    69    31    33 1   
    70    33    34 1   
    71    34    35 1   
    72    34    46 1   
    73    34    73 1   
    74    35    36 1   
    75    35    74 1   
    76    35    75 1   
    77    36    37 1   
    78    36    76 1   
    79    36    77 1   
    80    37    38 1   
    81    38    39 1   
    82    38    39 1   
    83    38    45 1   
    84    39    40 1   
    85    39    78 1   
    86    40    41 1   
    87    40    41 1   
    88    40    79 1   
    89    41    42 1   
    90    41    44 1   
    91    42    43 1   
    92    42    43 1   
    93    42    43 1   
    94    44    45 1   
    95    44    45 1   
    96    44    80 1   
    97    45    81 1   
    98    46    47 1   
    99    46    82 1   
   100    46    83 1   
   101    47    48 1   
   102    47    48 1   
   103    47    49 1   
   104    49    84 1   
@<TRIPOS>SUBSTRUCTURE
     1 AHK         1 TEMP              0 ****  ****    0 ROOT
