@<TRIPOS>MOLECULE
ADG
  105   110     1     0     0
SMALL
abcg2


@<TRIPOS>ATOM
      1 O           13.6060     0.7120    -3.7180 oh         1 ADG      -0.668000
      2 C           14.0290     1.7760    -2.8600 c3         1 ADG       0.181300
      3 C1          15.5430     1.9840    -2.9960 c3         1 ADG      -0.076400
      4 C2          16.0870     1.3800    -4.2820 c3         1 ADG      -0.078400
      5 C3          17.5820     1.5880    -4.4000 c3         1 ADG      -0.078400
      6 C4          18.0750     0.9420    -5.6840 c3         1 ADG      -0.078400
      7 C5          19.5730     1.1400    -5.8200 c3         1 ADG      -0.079400
      8 C6          20.0710     0.5000    -7.1060 c3         1 ADG      -0.076400
      9 C7          21.5740     0.7020    -7.2440 c3         1 ADG      -0.056400
     10 C8          22.0910     0.0810    -8.5050 c3         1 ADG      -0.119700
     11 C9          23.3840     0.1300    -8.8430 c3         1 ADG      -0.147400
     12 C10         13.6660     1.4190    -1.4230 c3         1 ADG      -0.166400
     13 C11         12.1720     1.2420    -1.2900 c3         1 ADG       0.597000
     14 O1          11.4110     1.3300    -2.2530 os         1 ADG      -0.519000
     15 O2          11.6860     0.9000    -0.0710 os         1 ADG      -0.457000
     16 C12         12.5350     0.6270     1.0660 c3         1 ADG       0.178300
     17 C13         12.6100    -0.8910     1.3010 c3         1 ADG      -0.095400
     18 C14         12.1750    -1.7010     0.0870 c3         1 ADG      -0.082400
     19 C15         12.2860    -3.1880     0.3440 c3         1 ADG      -0.077400
     20 C16         11.8290    -3.9420    -0.8950 c3         1 ADG      -0.079400
     21 C17         11.9360    -5.4350    -0.6570 c3         1 ADG      -0.079400
     22 C18         11.4840    -6.1960    -1.8930 c3         1 ADG      -0.076400
     23 C19         11.5930    -7.6960    -1.6540 c3         1 ADG      -0.056400
     24 C20         11.1530    -8.4700    -2.8570 c3         1 ADG      -0.119700
     25 C21         11.1610    -9.8080    -2.8830 c3         1 ADG      -0.147400
     26 C22         11.9320     1.3290     2.2770 c3         1 ADG      -0.145400
     27 C23         11.8420     2.8250     2.0450 c3         1 ADG       0.599000
     28 O3          12.2240     3.3620     1.0080 os         1 ADG      -0.516000
     29 O4          11.2960     3.5850     3.0310 os         1 ADG      -0.454000
     30 C24         10.8060     3.0510     4.2810 c3         1 ADG       0.177300
     31 C25          9.2720     3.0710     4.2580 c3         1 ADG      -0.093400
     32 C26          8.7100     2.7200     2.8840 c3         1 ADG      -0.083400
     33 C27          7.1980     2.7220     2.8810 c3         1 ADG      -0.076400
     34 C28          6.7020     2.3790     1.4840 c3         1 ADG      -0.080400
     35 C29          5.1850     2.3750     1.4660 c3         1 ADG      -0.078400
     36 C30          4.6780     2.0330     0.0740 c3         1 ADG      -0.076400
     37 C31          3.1550     2.0300     0.0590 c3         1 ADG      -0.056400
     38 C32          2.6260     1.6940    -1.3000 c3         1 ADG      -0.120700
     39 C33          1.3160     1.6310    -1.5580 c3         1 ADG      -0.146400
     40 C34         11.3580     3.9180     5.4200 c3         1 ADG      -0.148400
     41 C35         12.8680     3.8680     5.4150 c3         1 ADG       0.588000
     42 O5          13.5400     3.2030     4.6330 os         1 ADG      -0.510000
     43 O6          13.4480     4.6020     6.3870 oh         1 ADG      -0.615000
     44 H           12.6260     0.7050    -3.6880 ho         1 ADG       0.461000
     45 H1          13.5150     2.6900    -3.1780 h1         1 ADG       0.049700
     46 H2          15.7660     3.0590    -2.9560 hc         1 ADG       0.051200
     47 H3          16.0770     1.5440    -2.1440 hc         1 ADG       0.051200
     48 H4          15.5760     1.8200    -5.1460 hc         1 ADG       0.048700
     49 H5          15.8900     0.3000    -4.2930 hc         1 ADG       0.048700
     50 H6          18.0910     1.1400    -3.5380 hc         1 ADG       0.039200
     51 H7          17.8130     2.6590    -4.4010 hc         1 ADG       0.039200
     52 H8          17.5580     1.3810    -6.5460 hc         1 ADG       0.040700
     53 H9          17.8390    -0.1300    -5.6790 hc         1 ADG       0.040700
     54 H10         20.0850     0.6970    -4.9570 hc         1 ADG       0.039700
     55 H11         19.8040     2.2130    -5.8200 hc         1 ADG       0.039700
     56 H12         19.5490     0.9430    -7.9640 hc         1 ADG       0.042200
     57 H13         19.8320    -0.5710    -7.1010 hc         1 ADG       0.042200
     58 H14         22.0790     0.2550    -6.3800 hc         1 ADG       0.046700
     59 H15         21.7950     1.7770    -7.2470 hc         1 ADG       0.046700
     60 H16         21.3860    -0.4240    -9.1620 hc         1 ADG       0.079700
     61 H17         24.1100     0.6280    -8.2080 hc         1 ADG       0.070700
     62 H18         23.7360    -0.3260    -9.7610 hc         1 ADG       0.070700
     63 H19         14.0080     2.2170    -0.7580 hc         1 ADG       0.098200
     64 H20         14.1550     0.4710    -1.1660 hc         1 ADG       0.098200
     65 H21         13.5480     1.0090     0.9260 h1         1 ADG       0.076700
     66 H22         13.6390    -1.1540     1.5790 hc         1 ADG       0.062200
     67 H23         11.9910    -1.1850     2.1580 hc         1 ADG       0.062200
     68 H24         12.7920    -1.4400    -0.7810 hc         1 ADG       0.044700
     69 H25         11.1320    -1.4660    -0.1620 hc         1 ADG       0.044700
     70 H26         11.6640    -3.4660     1.2030 hc         1 ADG       0.042200
     71 H27         13.3220    -3.4490     0.5850 hc         1 ADG       0.042200
     72 H28         12.4450    -3.6530    -1.7570 hc         1 ADG       0.042200
     73 H29         10.7930    -3.6740    -1.1370 hc         1 ADG       0.042200
     74 H30         11.3190    -5.7170     0.2040 hc         1 ADG       0.040200
     75 H31         12.9730    -5.6970    -0.4140 hc         1 ADG       0.040200
     76 H32         12.1020    -5.9040    -2.7520 hc         1 ADG       0.042700
     77 H33         10.4480    -5.9260    -2.1340 hc         1 ADG       0.042700
     78 H34         10.9710    -7.9700    -0.7930 hc         1 ADG       0.046700
     79 H35         12.6330    -7.9480    -1.4140 hc         1 ADG       0.046700
     80 H36         10.8190    -7.9210    -3.7350 hc         1 ADG       0.079700
     81 H37         11.4900   -10.3830    -2.0240 hc         1 ADG       0.071200
     82 H38         10.8390   -10.3480    -3.7670 hc         1 ADG       0.071200
     83 H39         12.5670     1.1300     3.1440 hc         1 ADG       0.108200
     84 H40         10.9330     0.9200     2.4490 hc         1 ADG       0.108200
     85 H41         11.1370     2.0210     4.4390 h1         1 ADG       0.077700
     86 H42          8.8920     2.3710     5.0120 hc         1 ADG       0.058200
     87 H43          8.9010     4.0650     4.5360 hc         1 ADG       0.058200
     88 H44          9.0560     1.7310     2.5740 hc         1 ADG       0.047200
     89 H45          9.0580     3.4440     2.1360 hc         1 ADG       0.047200
     90 H46          6.8260     3.7080     3.1800 hc         1 ADG       0.040700
     91 H47          6.8240     1.9890     3.6040 hc         1 ADG       0.040700
     92 H48          7.0840     1.3960     1.1800 hc         1 ADG       0.044700
     93 H49          7.0840     3.1090     0.7590 hc         1 ADG       0.044700
     94 H50          4.8110     3.3600     1.7710 hc         1 ADG       0.038700
     95 H51          4.8100     1.6450     2.1930 hc         1 ADG       0.038700
     96 H52          5.0610     1.0500    -0.2260 hc         1 ADG       0.044200
     97 H53          5.0610     2.7640    -0.6480 hc         1 ADG       0.044200
     98 H54          2.7880     3.0180     0.3630 hc         1 ADG       0.046200
     99 H55          2.7880     1.2950     0.7870 hc         1 ADG       0.046200
    100 H56          3.3380     1.4980    -2.1000 hc         1 ADG       0.080700
    101 H57          0.5820     1.8220    -0.7810 hc         1 ADG       0.070700
    102 H58          0.9560     1.3870    -2.5510 hc         1 ADG       0.070700
    103 H59         10.9940     3.5340     6.3800 hc         1 ADG       0.092700
    104 H60         11.0370     4.9590     5.2970 hc         1 ADG       0.092700
    105 H61         12.8440     5.0900     6.9760 ho         1 ADG       0.468000
@<TRIPOS>BOND
     1     1     2 1   
     2     1    44 1   
     3     2     3 1   
     4     2    12 1   
     5     2    45 1   
     6     3     4 1   
     7     3    46 1   
     8     3    47 1   
     9     4     5 1   
    10     4    48 1   
    11     4    49 1   
    12     5     6 1   
    13     5    50 1   
    14     5    51 1   
    15     6     7 1   
    16     6    52 1   
    17     6    53 1   
    18     7     8 1   
    19     7    54 1   
    20     7    55 1   
    21     8     9 1   
    22     8    56 1   
    23     8    57 1   
    24     9    10 1   
    25     9    58 1   
    26     9    59 1   
    27    10    11 1   
    28    10    11 1   
    29    10    60 1   
    30    11    61 1   
    31    11    62 1   
    32    12    13 1   
    33    12    63 1   
    34    12    64 1   
    35    13    14 1   
    36    13    14 1   
    37    13    15 1   
    38    15    16 1   
    39    16    17 1   
    40    16    26 1   
    41    16    65 1   
    42    17    18 1   
    43    17    66 1   
    44    17    67 1   
    45    18    19 1   
    46    18    68 1   
    47    18    69 1   
    48    19    20 1   
    49    19    70 1   
    50    19    71 1   
    51    20    21 1   
    52    20    72 1   
    53    20    73 1   
    54    21    22 1   
    55    21    74 1   
    56    21    75 1   
    57    22    23 1   
    58    22    76 1   
    59    22    77 1   
    60    23    24 1   
    61    23    78 1   
    62    23    79 1   
    63    24    25 1   
    64    24    25 1   
    65    24    80 1   
    66    25    81 1   
    67    25    82 1   
    68    26    27 1   
    69    26    83 1   
    70    26    84 1   
    71    27    28 1   
    72    27    28 1   
    73    27    29 1   
    74    29    30 1   
    75    30    31 1   
    76    30    40 1   
    77    30    85 1   
    78    31    32 1   
    79    31    86 1   
    80    31    87 1   
    81    32    33 1   
    82    32    88 1   
    83    32    89 1   
    84    33    34 1   
    85    33    90 1   
    86    33    91 1   
    87    34    35 1   
    88    34    92 1   
    89    34    93 1   
    90    35    36 1   
    91    35    94 1   
    92    35    95 1   
    93    36    37 1   
    94    36    96 1   
    95    36    97 1   
    96    37    38 1   
    97    37    98 1   
    98    37    99 1   
    99    38    39 1   
   100    38    39 1   
   101    38   100 1   
   102    39   101 1   
   103    39   102 1   
   104    40    41 1   
   105    40   103 1   
   106    40   104 1   
   107    41    42 1   
   108    41    42 1   
   109    41    43 1   
   110    43   105 1   
@<TRIPOS>SUBSTRUCTURE
     1 ADG         1 TEMP              0 ****  ****    0 ROOT
