@<TRIPOS>MOLECULE
ABG
   75    77     1     0     0
SMALL
abcg2


@<TRIPOS>ATOM
      1 O           13.5600     1.9740    -3.2600 oh         1 ABG      -0.668000
      2 C           14.1160     2.5080    -2.0560 c3         1 ABG       0.181300
      3 C1          15.6380     2.4020    -2.1520 c3         1 ABG      -0.076400
      4 C2          16.1480     3.1720    -3.3640 c3         1 ABG      -0.078400
      5 C3          17.6600     3.0780    -3.4680 c3         1 ABG      -0.078400
      6 C4          18.1520     3.8520    -4.6840 c3         1 ABG      -0.080400
      7 C5          19.6610     3.7630    -4.7930 c3         1 ABG      -0.092100
      8 C6          13.6160     1.7030    -0.8710 c3         1 ABG      -0.166400
      9 C7          12.1090     1.7630    -0.7650 c3         1 ABG       0.597000
     10 O1          11.4220     2.3880    -1.5720 os         1 ABG      -0.519000
     11 O2          11.5150     1.0180     0.2030 os         1 ABG      -0.457000
     12 C8          12.2670     0.2770     1.1880 c3         1 ABG       0.178300
     13 C9          12.1550    -1.2160     0.8510 c3         1 ABG      -0.094400
     14 C10         12.6490    -1.4990    -0.5600 c3         1 ABG      -0.082400
     15 C11         12.5800    -2.9650    -0.9150 c3         1 ABG      -0.077400
     16 C12         13.0930    -3.1660    -2.3370 c3         1 ABG      -0.080400
     17 C13         13.0470    -4.6350    -2.6960 c3         1 ABG      -0.093100
     18 C14         11.6700     0.5440     2.5630 c3         1 ABG      -0.145400
     19 C15         11.7180     2.0150     2.9240 c3         1 ABG       0.599000
     20 O3          12.2050     2.8620     2.1800 os         1 ABG      -0.516000
     21 O4          11.1610     2.3900     4.1070 os         1 ABG      -0.454000
     22 C16         10.7100     1.4610     5.1220 c3         1 ABG       0.177300
     23 C17          9.1790     1.4850     5.1280 c3         1 ABG      -0.093400
     24 C18          8.6190     0.9460     3.8150 c3         1 ABG      -0.083400
     25 C19          7.1070     0.9420     3.7920 c3         1 ABG      -0.076400
     26 C20          6.6090     0.3880     2.4610 c3         1 ABG      -0.081400
     27 C21          5.0950     0.3790     2.4400 c3         1 ABG      -0.093100
     28 C22         11.2740     1.8900     6.4850 c3         1 ABG      -0.148400
     29 C23         12.7840     1.8360     6.4600 c3         1 ABG       0.588000
     30 O5          13.4500     1.4870     5.4900 os         1 ABG      -0.510000
     31 O6          13.3680     2.1630     7.6310 oh         1 ABG      -0.615000
     32 H           12.5960     2.1410    -3.2110 ho         1 ABG       0.461000
     33 H1          13.8170     3.5580    -1.9620 h1         1 ABG       0.049700
     34 H2          16.1030     2.7890    -1.2370 hc         1 ABG       0.051200
     35 H3          15.9400     1.3500    -2.2510 hc         1 ABG       0.051200
     36 H4          15.8410     4.2210    -3.2850 hc         1 ABG       0.048200
     37 H5          15.6990     2.7700    -4.2810 hc         1 ABG       0.048200
     38 H6          17.9610     2.0260    -3.5490 hc         1 ABG       0.038700
     39 H7          18.1200     3.4790    -2.5570 hc         1 ABG       0.038700
     40 H8          17.8490     4.9020    -4.6060 hc         1 ABG       0.039200
     41 H9          17.6930     3.4480    -5.5950 hc         1 ABG       0.039200
     42 H10         20.1370     4.1810    -3.9000 hc         1 ABG       0.032033
     43 H11         20.0120     4.3210    -5.6650 hc         1 ABG       0.032033
     44 H12         19.9800     2.7210    -4.8970 hc         1 ABG       0.032033
     45 H13         14.0780     2.0750     0.0470 hc         1 ABG       0.098200
     46 H14         13.9190     0.6760    -1.0520 hc         1 ABG       0.098200
     47 H15         13.3180     0.5660     1.2200 h1         1 ABG       0.076700
     48 H16         12.7410    -1.7970     1.5720 hc         1 ABG       0.062200
     49 H17         11.1120    -1.5490     0.9290 hc         1 ABG       0.062200
     50 H18         13.6960    -1.1960    -0.6340 hc         1 ABG       0.044200
     51 H19         12.0640    -0.9290    -1.2920 hc         1 ABG       0.044200
     52 H20         11.5480    -3.3220    -0.8280 hc         1 ABG       0.042200
     53 H21         13.1960    -3.5350    -0.2100 hc         1 ABG       0.042200
     54 H22         14.1220    -2.7940    -2.4260 hc         1 ABG       0.040700
     55 H23         12.4830    -2.5910    -3.0440 hc         1 ABG       0.040700
     56 H24         13.6730    -5.2150    -2.0100 hc         1 ABG       0.033700
     57 H25         13.4100    -4.7900    -3.7140 hc         1 ABG       0.033700
     58 H26         12.0220    -5.0120    -2.6290 hc         1 ABG       0.033700
     59 H27         12.2310    -0.0350     3.3010 hc         1 ABG       0.108200
     60 H28         10.6380     0.2060     2.5300 hc         1 ABG       0.108200
     61 H29         11.0550     0.4430     4.9230 h1         1 ABG       0.077700
     62 H30          8.8000     0.8800     5.9580 hc         1 ABG       0.058200
     63 H31          8.8200     2.5130     5.2660 hc         1 ABG       0.058200
     64 H32          8.9690    -0.0840     3.6750 hc         1 ABG       0.047200
     65 H33          8.9740     1.5530     2.9740 hc         1 ABG       0.047200
     66 H34          6.7360     1.9620     3.9370 hc         1 ABG       0.040700
     67 H35          6.7330     0.3270     4.6180 hc         1 ABG       0.040700
     68 H36          6.9870    -0.6310     2.3090 hc         1 ABG       0.043700
     69 H37          6.9870     0.9980     1.6310 hc         1 ABG       0.043700
     70 H38          4.7050    -0.2450     3.2510 hc         1 ABG       0.033700
     71 H39          4.7280    -0.0160     1.4900 hc         1 ABG       0.033700
     72 H40          4.7050     1.3940     2.5690 hc         1 ABG       0.033700
     73 H41         10.9200     1.1920     7.2530 hc         1 ABG       0.092700
     74 H42         10.9520     2.9060     6.7390 hc         1 ABG       0.092700
     75 H43         12.7680     2.4080     8.3600 ho         1 ABG       0.468000
@<TRIPOS>BOND
     1     1     2 1   
     2     1    32 1   
     3     2     3 1   
     4     2     8 1   
     5     2    33 1   
     6     3     4 1   
     7     3    34 1   
     8     3    35 1   
     9     4     5 1   
    10     4    36 1   
    11     4    37 1   
    12     5     6 1   
    13     5    38 1   
    14     5    39 1   
    15     6     7 1   
    16     6    40 1   
    17     6    41 1   
    18     7    42 1   
    19     7    43 1   
    20     7    44 1   
    21     8     9 1   
    22     8    45 1   
    23     8    46 1   
    24     9    10 1   
    25     9    10 1   
    26     9    11 1   
    27    11    12 1   
    28    12    13 1   
    29    12    18 1   
    30    12    47 1   
    31    13    14 1   
    32    13    48 1   
    33    13    49 1   
    34    14    15 1   
    35    14    50 1   
    36    14    51 1   
    37    15    16 1   
    38    15    52 1   
    39    15    53 1   
    40    16    17 1   
    41    16    54 1   
    42    16    55 1   
    43    17    56 1   
    44    17    57 1   
    45    17    58 1   
    46    18    19 1   
    47    18    59 1   
    48    18    60 1   
    49    19    20 1   
    50    19    20 1   
    51    19    21 1   
    52    21    22 1   
    53    22    23 1   
    54    22    28 1   
    55    22    61 1   
    56    23    24 1   
    57    23    62 1   
    58    23    63 1   
    59    24    25 1   
    60    24    64 1   
    61    24    65 1   
    62    25    26 1   
    63    25    66 1   
    64    25    67 1   
    65    26    27 1   
    66    26    68 1   
    67    26    69 1   
    68    27    70 1   
    69    27    71 1   
    70    27    72 1   
    71    28    29 1   
    72    28    73 1   
    73    28    74 1   
    74    29    30 1   
    75    29    30 1   
    76    29    31 1   
    77    31    75 1   
@<TRIPOS>SUBSTRUCTURE
     1 ABG         1 TEMP              0 ****  ****    0 ROOT
