@<TRIPOS>MOLECULE
AHO
   81    95     1     0     0
SMALL
abcg2


@<TRIPOS>ATOM
      1 O            1.0410    -0.1630     0.0110 oh         1 AHO      -0.664000
      2 C            2.4670    -0.0790    -0.0010 c3         1 AHO       0.170300
      3 C1           2.8860     1.3290     0.4530 c3         1 AHO      -0.111400
      4 C2           2.4000     2.4430    -0.4850 c3         1 AHO       0.006600
      5 S            2.7560     4.0730     0.2660 ss         1 AHO      -0.223000
      6 C3           2.4270     5.2460    -1.0460 c3         1 AHO       0.001000
      7 C4           2.9760     6.5320    -0.9130 c3         1 AHO      -0.080700
      8 C5           2.6000     7.5700    -1.7680 c3         1 AHO      -0.073200
      9 C6           1.7120     7.3180    -2.8080 c3         1 AHO      -0.098700
     10 C7           1.2070     6.0310    -2.9880 c3         1 AHO      -0.073200
     11 C8           1.5690     4.9980    -2.1170 c3         1 AHO      -0.105700
     12 C9           3.0160    -1.1960     0.9160 c3         1 AHO      -0.083400
     13 C10          4.5010    -1.3840     0.7170 c3         1 AHO       0.598000
     14 O1           5.0870    -0.9730    -0.2790 os         1 AHO      -0.546000
     15 O2           5.1180    -2.0040     1.7780 os         1 AHO      -0.473000
     16 C11          6.5850    -2.0090     1.7640 c3         1 AHO       0.179300
     17 C12          7.0920    -0.6320     2.2690 c3         1 AHO      -0.095400
     18 C13          6.6690     0.5490     1.3980 c3         1 AHO       0.010600
     19 S1           7.0400     2.1750     2.1010 ss         1 AHO      -0.234000
     20 C14          6.7010     3.2900     0.7280 c3         1 AHO       0.003000
     21 C15          7.1880     4.5930     0.8740 c3         1 AHO      -0.082700
     22 C16          6.8260     5.6090    -0.0080 c3         1 AHO      -0.073200
     23 C17          6.0270     5.3180    -1.1040 c3         1 AHO      -0.098700
     24 C18          5.6030     4.0100    -1.3160 c3         1 AHO      -0.073200
     25 C19          5.9470     2.9980    -0.4110 c3         1 AHO      -0.103700
     26 C20          7.1440    -3.1580     2.6760 c3         1 AHO      -0.091400
     27 C21          8.6500    -3.3360     2.4920 c3         1 AHO       0.597000
     28 O3           9.2280    -2.9280     1.4910 os         1 AHO      -0.534000
     29 O4           9.2930    -3.9490     3.5470 os         1 AHO      -0.475000
     30 C22         10.7760    -3.9620     3.5190 c3         1 AHO       0.181300
     31 C23         11.3130    -2.5900     4.0040 c3         1 AHO      -0.086400
     32 C24         10.9160    -1.4360     3.1030 c3         1 AHO       0.010600
     33 S2          11.6530     0.1230     3.6280 ss         1 AHO      -0.241000
     34 C25         11.0350     1.2760     2.4050 c3         1 AHO       0.005000
     35 C26         11.4630     2.5940     2.5820 c3         1 AHO      -0.083700
     36 C27         11.0120     3.6210     1.7560 c3         1 AHO      -0.074200
     37 C28         10.1940     3.3280     0.6740 c3         1 AHO      -0.099700
     38 C29          9.7810     2.0170     0.4600 c3         1 AHO      -0.074200
     39 C30         10.1810     0.9970     1.3340 c3         1 AHO      -0.102700
     40 C31         11.3430    -5.0820     4.4460 c3         1 AHO      -0.138400
     41 C32         12.8660    -5.1460     4.4040 c3         1 AHO       0.581000
     42 O5          13.5720    -4.4840     3.6440 os         1 AHO      -0.481000
     43 O6          13.4320    -6.0150     5.2650 oh         1 AHO      -0.621000
     44 H            0.6930     0.4760    -0.6350 ho         1 AHO       0.449000
     45 H1           2.7960    -0.2530    -1.0320 h1         1 AHO       0.063700
     46 H2           3.9680     1.3650     0.5050 hc         1 AHO       0.072700
     47 H3           2.5190     1.5110     1.4690 hc         1 AHO       0.072700
     48 H4           1.3180     2.3960    -0.6070 h1         1 AHO       0.067200
     49 H5           2.8700     2.3320    -1.4700 h1         1 AHO       0.067200
     50 H6           3.7040     6.7410    -0.1300 hc         1 AHO       0.103700
     51 H7           2.9760     8.5760    -1.5990 hc         1 AHO       0.094200
     52 H8           1.4090     8.1240    -3.4710 hc         1 AHO       0.094700
     53 H9           0.4940     5.8390    -3.7860 hc         1 AHO       0.094200
     54 H10          1.1340     4.0180    -2.2740 hc         1 AHO       0.087700
     55 H11          2.5380    -2.1470     0.6620 hc         1 AHO       0.100200
     56 H12          2.7750    -0.9670     1.9610 hc         1 AHO       0.100200
     57 H13          6.9240    -2.1980     0.7370 h1         1 AHO       0.089700
     58 H14          8.1740    -0.6550     2.3150 hc         1 AHO       0.082200
     59 H15          6.7300    -0.4740     3.2900 hc         1 AHO       0.082200
     60 H16          5.5920     0.5850     1.3860 h1         1 AHO       0.072700
     61 H17          7.0670     0.4310     0.3820 h1         1 AHO       0.072700
     62 H18          7.8710     4.8240     1.6880 hc         1 AHO       0.101700
     63 H19          7.1380     6.6300     0.1890 hc         1 AHO       0.093700
     64 H20          5.6920     6.1140    -1.7640 hc         1 AHO       0.092700
     65 H21          4.9030     3.8030    -2.1250 hc         1 AHO       0.093700
     66 H22          5.5500     2.0070    -0.5970 hc         1 AHO       0.092700
     67 H23          6.6720    -4.1080     2.4080 hc         1 AHO       0.095700
     68 H24          6.9000    -2.9440     3.7230 hc         1 AHO       0.095700
     69 H25         11.1070    -4.1790     2.4940 h1         1 AHO       0.105700
     70 H26         12.4040    -2.5940     4.0620 hc         1 AHO       0.073200
     71 H27         10.9380    -2.4110     5.0190 hc         1 AHO       0.073200
     72 H28          9.8460    -1.2940     3.1980 h1         1 AHO       0.077700
     73 H29         11.2100    -1.6450     2.0700 h1         1 AHO       0.077700
     74 H30         12.1630     2.8290     3.3780 hc         1 AHO       0.100700
     75 H31         11.2930     4.6470     1.9690 hc         1 AHO       0.093700
     76 H32          9.8350     4.1250     0.0280 hc         1 AHO       0.092700
     77 H33          9.0600     1.8100    -0.3300 hc         1 AHO       0.093700
     78 H34          9.7730     0.0080     1.1590 hc         1 AHO       0.095700
     79 H35         10.9560    -6.0590     4.1360 hc         1 AHO       0.086200
     80 H36         11.0160    -4.9080     5.4790 hc         1 AHO       0.086200
     81 H37         12.8310    -6.5550     5.8100 ho         1 AHO       0.464000
@<TRIPOS>BOND
     1     1     2 1   
     2     1    44 1   
     3     2     3 1   
     4     2    12 1   
     5     2    45 1   
     6     3     4 1   
     7     3    46 1   
     8     3    47 1   
     9     4     5 1   
    10     4    48 1   
    11     4    49 1   
    12     5     6 1   
    13     6     7 1   
    14     6     7 1   
    15     6    11 1   
    16     7     8 1   
    17     7    50 1   
    18     8     9 1   
    19     8     9 1   
    20     8    51 1   
    21     9    10 1   
    22     9    52 1   
    23    10    11 1   
    24    10    11 1   
    25    10    53 1   
    26    11    54 1   
    27    12    13 1   
    28    12    55 1   
    29    12    56 1   
    30    13    14 1   
    31    13    14 1   
    32    13    15 1   
    33    15    16 1   
    34    16    17 1   
    35    16    26 1   
    36    16    57 1   
    37    17    18 1   
    38    17    58 1   
    39    17    59 1   
    40    18    19 1   
    41    18    60 1   
    42    18    61 1   
    43    19    20 1   
    44    20    21 1   
    45    20    21 1   
    46    20    25 1   
    47    21    22 1   
    48    21    62 1   
    49    22    23 1   
    50    22    23 1   
    51    22    63 1   
    52    23    24 1   
    53    23    64 1   
    54    24    25 1   
    55    24    25 1   
    56    24    65 1   
    57    25    66 1   
    58    26    27 1   
    59    26    67 1   
    60    26    68 1   
    61    27    28 1   
    62    27    28 1   
    63    27    29 1   
    64    29    30 1   
    65    30    31 1   
    66    30    40 1   
    67    30    69 1   
    68    31    32 1   
    69    31    70 1   
    70    31    71 1   
    71    32    33 1   
    72    32    72 1   
    73    32    73 1   
    74    33    34 1   
    75    34    35 1   
    76    34    35 1   
    77    34    39 1   
    78    35    36 1   
    79    35    74 1   
    80    36    37 1   
    81    36    37 1   
    82    36    75 1   
    83    37    38 1   
    84    37    76 1   
    85    38    39 1   
    86    38    39 1   
    87    38    77 1   
    88    39    78 1   
    89    40    41 1   
    90    40    79 1   
    91    40    80 1   
    92    41    42 1   
    93    41    42 1   
    94    41    43 1   
    95    43    81 1   
@<TRIPOS>SUBSTRUCTURE
     1 AHO         1 TEMP              0 ****  ****    0 ROOT
