@<TRIPOS>MOLECULE
ADC
   87    92     1     0     0
SMALL
abcg2


@<TRIPOS>ATOM
      1 O           14.0470     1.1640    -3.3800 oh         1 ADC      -0.670000
      2 C           14.1880     2.1320    -2.3590 c3         1 ADC       0.182300
      3 C1          15.6220     2.6550    -2.2420 c3         1 ADC      -0.080400
      4 C2          15.4620     3.8450    -1.3150 c3         1 ADC      -0.084400
      5 C3          16.4310     4.9660    -1.4610 c3         1 ADC      -0.077400
      6 C4          15.8870     6.0570    -0.5410 c3         1 ADC      -0.077400
      7 C5          16.8190     7.2370    -0.5800 c3         1 ADC      -0.056400
      8 C6          16.3380     8.3280     0.3170 c3         1 ADC      -0.119700
      9 C7          17.0280     9.4650     0.4390 c3         1 ADC      -0.148400
     10 C8          13.7730     1.5550    -1.0080 c3         1 ADC      -0.166400
     11 C9          12.3000     1.3020    -0.9520 c3         1 ADC       0.595000
     12 O1          11.5560     1.5610    -1.8940 os         1 ADC      -0.518000
     13 O2          11.8170     0.7490     0.1880 os         1 ADC      -0.457000
     14 C10         12.6350     0.4660     1.3510 c3         1 ADC       0.178300
     15 C11         12.7720    -1.0540     1.4370 c3         1 ADC      -0.094400
     16 C12         13.8150    -1.5470     0.4410 c3         1 ADC      -0.082400
     17 C13         13.9780    -3.0510     0.5120 c3         1 ADC      -0.077400
     18 C14         15.0410    -3.5020    -0.4810 c3         1 ADC      -0.076400
     19 C15         15.2020    -5.0150    -0.4200 c3         1 ADC      -0.056400
     20 C16         16.2420    -5.4930    -1.3840 c3         1 ADC      -0.120700
     21 C17         16.5560    -6.7870    -1.5060 c3         1 ADC      -0.146400
     22 C18         11.9390     1.0140     2.5920 c3         1 ADC      -0.146400
     23 C19         11.8580     2.5220     2.5390 c3         1 ADC       0.599000
     24 O3          12.2520     3.1820     1.5810 os         1 ADC      -0.516000
     25 O4          11.3110     3.1490     3.6090 os         1 ADC      -0.454000
     26 C20         10.7920     2.4730     4.7790 c3         1 ADC       0.177300
     27 C21          9.2540     2.5000     4.7460 c3         1 ADC      -0.090400
     28 C22          8.6950     3.2710     3.5560 c3         1 ADC      -0.080400
     29 C23          7.1800     3.2730     3.5530 c3         1 ADC      -0.079400
     30 C24          6.6760     4.0540     2.3460 c3         1 ADC      -0.075400
     31 C25          5.1540     4.0650     2.3280 c3         1 ADC      -0.056400
     32 C26          4.6300     4.8290     1.1520 c3         1 ADC      -0.122700
     33 C27          3.3190     4.9750     0.9290 c3         1 ADC      -0.144400
     34 C28         11.3440     3.1920     6.0160 c3         1 ADC      -0.148400
     35 C29         12.8540     3.1410     6.0100 c3         1 ADC       0.587000
     36 O5          13.5300     2.5790     5.1510 os         1 ADC      -0.511000
     37 O6          13.4310     3.7390     7.0710 oh         1 ADC      -0.615000
     38 H           13.0740     1.1110    -3.5120 ho         1 ADC       0.461000
     39 H1          13.5370     2.9680    -2.6450 h1         1 ADC       0.049700
     40 H2          16.2920     1.9040    -1.7970 hc         1 ADC       0.056700
     41 H3          16.0540     2.9090    -3.2160 hc         1 ADC       0.056700
     42 H4          15.4930     3.5070    -0.2740 hc         1 ADC       0.046700
     43 H5          14.4680     4.2890    -1.4730 hc         1 ADC       0.046700
     44 H6          16.4640     5.3150    -2.4980 hc         1 ADC       0.040200
     45 H7          17.4310     4.6420    -1.1590 hc         1 ADC       0.040200
     46 H8          15.7800     5.6730     0.4840 hc         1 ADC       0.043700
     47 H9          14.8760     6.3560    -0.8600 hc         1 ADC       0.043700
     48 H10         16.8800     7.5980    -1.6130 hc         1 ADC       0.046700
     49 H11         17.8130     6.9020    -0.2660 hc         1 ADC       0.046700
     50 H12         15.4150     8.1870     0.8760 hc         1 ADC       0.079700
     51 H13         17.9490     9.6120    -0.1170 hc         1 ADC       0.070700
     52 H14         16.6820    10.2580     1.0900 hc         1 ADC       0.070700
     53 H15         13.9840     2.2530    -0.1960 hc         1 ADC       0.098700
     54 H16         14.3470     0.6430    -0.8480 hc         1 ADC       0.098700
     55 H17         13.6290     0.9200     1.3050 h1         1 ADC       0.076700
     56 H18         13.0730    -1.3560     2.4460 hc         1 ADC       0.062200
     57 H19         11.8100    -1.5310     1.2120 hc         1 ADC       0.062200
     58 H20         14.7780    -1.0650     0.6530 hc         1 ADC       0.044700
     59 H21         13.5220    -1.2790    -0.5800 hc         1 ADC       0.044700
     60 H22         13.0200    -3.5330     0.2830 hc         1 ADC       0.042200
     61 H23         14.2630    -3.3450     1.5290 hc         1 ADC       0.042200
     62 H24         15.9950    -3.0100    -0.2530 hc         1 ADC       0.044200
     63 H25         14.7570    -3.1930    -1.4960 hc         1 ADC       0.044200
     64 H26         14.2410    -5.4880    -0.6520 hc         1 ADC       0.047200
     65 H27         15.4850    -5.3040     0.5990 hc         1 ADC       0.047200
     66 H28         16.7540    -4.7590    -2.0050 hc         1 ADC       0.080700
     67 H29         16.0610    -7.5420    -0.9030 hc         1 ADC       0.071200
     68 H30         17.3120    -7.1120    -2.2130 hc         1 ADC       0.071200
     69 H31         12.5440     0.7310     3.4590 hc         1 ADC       0.108700
     70 H32         10.9300     0.5970     2.6740 hc         1 ADC       0.108700
     71 H33         11.1150     1.4300     4.8280 h1         1 ADC       0.075700
     72 H34          8.8870     1.4660     4.7050 hc         1 ADC       0.056700
     73 H35          8.8530     2.9140     5.6790 hc         1 ADC       0.056700
     74 H36          9.0450     2.8190     2.6190 hc         1 ADC       0.049200
     75 H37          9.0600     4.3060     3.5820 hc         1 ADC       0.049200
     76 H38          6.8060     3.7260     4.4790 hc         1 ADC       0.041700
     77 H39          6.8080     2.2420     3.5160 hc         1 ADC       0.041700
     78 H40          7.0620     3.6010     1.4240 hc         1 ADC       0.043200
     79 H41          7.0610     5.0810     2.3830 hc         1 ADC       0.043200
     80 H42          4.7870     4.5200     3.2550 hc         1 ADC       0.047200
     81 H43          4.7880     3.0320     2.2880 hc         1 ADC       0.047200
     82 H44          5.3420     5.2760     0.4610 hc         1 ADC       0.080700
     83 H45          2.5850     4.5390     1.5990 hc         1 ADC       0.071700
     84 H46          2.9610     5.5310     0.0700 hc         1 ADC       0.071700
     85 H47         10.9820     2.6880     6.9200 hc         1 ADC       0.094200
     86 H48         11.0200     4.2390     6.0260 hc         1 ADC       0.094200
     87 H49         12.8220     4.1440     7.7150 ho         1 ADC       0.468000
@<TRIPOS>BOND
     1     1     2 1   
     2     1    38 1   
     3     2     3 1   
     4     2    10 1   
     5     2    39 1   
     6     3     4 1   
     7     3    40 1   
     8     3    41 1   
     9     4     5 1   
    10     4    42 1   
    11     4    43 1   
    12     5     6 1   
    13     5    44 1   
    14     5    45 1   
    15     6     7 1   
    16     6    46 1   
    17     6    47 1   
    18     7     8 1   
    19     7    48 1   
    20     7    49 1   
    21     8     9 1   
    22     8     9 1   
    23     8    50 1   
    24     9    51 1   
    25     9    52 1   
    26    10    11 1   
    27    10    53 1   
    28    10    54 1   
    29    11    12 1   
    30    11    12 1   
    31    11    13 1   
    32    13    14 1   
    33    14    15 1   
    34    14    22 1   
    35    14    55 1   
    36    15    16 1   
    37    15    56 1   
    38    15    57 1   
    39    16    17 1   
    40    16    58 1   
    41    16    59 1   
    42    17    18 1   
    43    17    60 1   
    44    17    61 1   
    45    18    19 1   
    46    18    62 1   
    47    18    63 1   
    48    19    20 1   
    49    19    64 1   
    50    19    65 1   
    51    20    21 1   
    52    20    21 1   
    53    20    66 1   
    54    21    67 1   
    55    21    68 1   
    56    22    23 1   
    57    22    69 1   
    58    22    70 1   
    59    23    24 1   
    60    23    24 1   
    61    23    25 1   
    62    25    26 1   
    63    26    27 1   
    64    26    34 1   
    65    26    71 1   
    66    27    28 1   
    67    27    72 1   
    68    27    73 1   
    69    28    29 1   
    70    28    74 1   
    71    28    75 1   
    72    29    30 1   
    73    29    76 1   
    74    29    77 1   
    75    30    31 1   
    76    30    78 1   
    77    30    79 1   
    78    31    32 1   
    79    31    80 1   
    80    31    81 1   
    81    32    33 1   
    82    32    33 1   
    83    32    82 1   
    84    33    83 1   
    85    33    84 1   
    86    34    35 1   
    87    34    85 1   
    88    34    86 1   
    89    35    36 1   
    90    35    36 1   
    91    35    37 1   
    92    37    87 1   
@<TRIPOS>SUBSTRUCTURE
     1 ADC         1 TEMP              0 ****  ****    0 ROOT
