@<TRIPOS>MOLECULE
ABO
   93    95     1     0     0
SMALL
abcg2


@<TRIPOS>ATOM
      1 O           15.5810    -2.2820    -2.6090 oh         1 ABO      -0.670000
      2 C           15.0870    -1.2680    -3.4820 c3         1 ABO       0.183300
      3 C1          16.1760    -0.9390    -4.4990 c3         1 ABO      -0.080400
      4 C2          15.5700    -0.4570    -5.8110 c3         1 ABO      -0.085400
      5 C3          16.6680    -0.1300    -6.8100 c3         1 ABO      -0.076400
      6 C4          16.0600     0.3150    -8.1310 c3         1 ABO      -0.080400
      7 C5          17.1600     0.6390    -9.1300 c3         1 ABO      -0.079400
      8 C6          16.5610     1.0860   -10.4560 c3         1 ABO      -0.080400
      9 C7          17.6610     1.4090   -11.4490 c3         1 ABO      -0.092100
     10 C8          14.7590    -0.0380    -2.6540 c3         1 ABO      -0.167400
     11 C9          13.6280    -0.3400    -1.6960 c3         1 ABO       0.595000
     12 O1          13.1330    -1.4590    -1.5800 os         1 ABO      -0.518000
     13 O2          13.2440     0.6590    -0.8660 os         1 ABO      -0.459000
     14 C10         13.6200     2.0240    -1.1020 c3         1 ABO       0.180300
     15 C11         14.0270     2.6100     0.2630 c3         1 ABO      -0.093400
     16 C12         13.7980     4.1130     0.3390 c3         1 ABO      -0.087400
     17 C13         14.2240     4.6950     1.6630 c3         1 ABO      -0.075400
     18 C14         13.9100     6.1840     1.6620 c3         1 ABO      -0.080400
     19 C15         14.3280     6.7890     2.9870 c3         1 ABO      -0.078400
     20 C16         14.0330     8.2790     3.0120 c3         1 ABO      -0.080400
     21 C17         14.4600     8.8690     4.3400 c3         1 ABO      -0.092100
     22 C18         12.4370     2.7540    -1.7230 c3         1 ABO      -0.149400
     23 C19         11.9970     2.2560    -3.0840 c3         1 ABO       0.599000
     24 O3          12.3860     1.2180    -3.6020 os         1 ABO      -0.515000
     25 O4          11.0790     2.9990    -3.7470 os         1 ABO      -0.458000
     26 C20         10.6650     4.2920    -3.2920 c3         1 ABO       0.179300
     27 C21          9.1380     4.2470    -3.2950 c3         1 ABO      -0.096400
     28 C22          8.5850     5.4570    -2.5670 c3         1 ABO      -0.080400
     29 C23          7.0720     5.4460    -2.5620 c3         1 ABO      -0.079400
     30 C24          6.5680     6.6860    -1.8420 c3         1 ABO      -0.079400
     31 C25          5.0510     6.6990    -1.8370 c3         1 ABO      -0.079400
     32 C26          4.5320     7.9350    -1.1180 c3         1 ABO      -0.080400
     33 C27          3.0170     7.9410    -1.1140 c3         1 ABO      -0.093100
     34 C28         11.2450     5.3670    -4.2250 c3         1 ABO      -0.149400
     35 C29         12.7610     5.3790    -4.2520 c3         1 ABO       0.588000
     36 O5          13.4960     4.5860    -3.6760 os         1 ABO      -0.512000
     37 O6          13.2960     6.3780    -4.9780 oh         1 ABO      -0.615000
     38 H           14.8190    -2.5230    -2.0380 ho         1 ABO       0.461000
     39 H1          14.1950    -1.6590    -3.9890 h1         1 ABO       0.048700
     40 H2          16.8470    -0.1650    -4.1010 hc         1 ABO       0.056200
     41 H3          16.8020    -1.8190    -4.6800 hc         1 ABO       0.056200
     42 H4          14.9420     0.4280    -5.6490 hc         1 ABO       0.046700
     43 H5          14.9220    -1.2410    -6.2240 hc         1 ABO       0.046700
     44 H6          17.2990    -1.0130    -6.9690 hc         1 ABO       0.039700
     45 H7          17.3120     0.6620    -6.4090 hc         1 ABO       0.039700
     46 H8          15.4280     1.1970    -7.9710 hc         1 ABO       0.041700
     47 H9          15.4160    -0.4780    -8.5300 hc         1 ABO       0.041700
     48 H10         17.7910    -0.2450    -9.2840 hc         1 ABO       0.038700
     49 H11         17.8040     1.4300    -8.7260 hc         1 ABO       0.038700
     50 H12         15.9320     1.9700   -10.3030 hc         1 ABO       0.038700
     51 H13         15.9190     0.2950   -10.8620 hc         1 ABO       0.038700
     52 H14         18.3000     2.2120   -11.0700 hc         1 ABO       0.032033
     53 H15         17.2300     1.7290   -12.4010 hc         1 ABO       0.032033
     54 H16         18.2870     0.5290   -11.6310 hc         1 ABO       0.032033
     55 H17         14.5120     0.7730    -3.3410 hc         1 ABO       0.099700
     56 H18         15.6300     0.2600    -2.0620 hc         1 ABO       0.099700
     57 H19         14.4920     2.1250    -1.7520 h1         1 ABO       0.075700
     58 H20         13.4900     2.1080     1.0770 hc         1 ABO       0.059700
     59 H21         15.0900     2.3910     0.4320 hc         1 ABO       0.059700
     60 H22         12.7300     4.3330     0.2230 hc         1 ABO       0.049200
     61 H23         14.3360     4.6140    -0.4760 hc         1 ABO       0.049200
     62 H24         15.2950     4.5270     1.8180 hc         1 ABO       0.041200
     63 H25         13.6820     4.1980     2.4760 hc         1 ABO       0.041200
     64 H26         12.8360     6.3450     1.4980 hc         1 ABO       0.042700
     65 H27         14.4360     6.6790     0.8360 hc         1 ABO       0.042700
     66 H28         15.4000     6.6150     3.1440 hc         1 ABO       0.039200
     67 H29         13.7940     6.2860     3.8030 hc         1 ABO       0.039200
     68 H30         12.9610     8.4520     2.8570 hc         1 ABO       0.039200
     69 H31         14.5660     8.7800     2.1950 hc         1 ABO       0.039200
     70 H32         13.9220     8.3920     5.1650 hc         1 ABO       0.032700
     71 H33         14.2510     9.9410     4.3640 hc         1 ABO       0.032700
     72 H34         15.5330     8.7200     4.5010 hc         1 ABO       0.032700
     73 H35         12.7670     3.7840    -1.8340 hc         1 ABO       0.110200
     74 H36         11.5780     2.7330    -1.0470 hc         1 ABO       0.110200
     75 H37         10.9700     4.4970    -2.2650 h1         1 ABO       0.076700
     76 H38          8.7550     4.1900    -4.3220 hc         1 ABO       0.063700
     77 H39          8.7900     3.3280    -2.8010 hc         1 ABO       0.063700
     78 H40          8.9320     6.3770    -3.0460 hc         1 ABO       0.041200
     79 H41          8.9610     5.4670    -1.5360 hc         1 ABO       0.041200
     80 H42          6.7030     4.5410    -2.0650 hc         1 ABO       0.044200
     81 H43          6.6990     5.4320    -3.5930 hc         1 ABO       0.044200
     82 H44          6.9490     7.5870    -2.3400 hc         1 ABO       0.040700
     83 H45          6.9490     6.7000    -0.8130 hc         1 ABO       0.040700
     84 H46          4.6770     5.7930    -1.3430 hc         1 ABO       0.041200
     85 H47          4.6790     6.6820    -2.8690 hc         1 ABO       0.041200
     86 H48          4.9040     8.8390    -1.6130 hc         1 ABO       0.038700
     87 H49          4.9040     7.9510    -0.0870 hc         1 ABO       0.038700
     88 H50          2.6280     7.9470    -2.1380 hc         1 ABO       0.033700
     89 H51          2.6430     8.8290    -0.5970 hc         1 ABO       0.033700
     90 H52          2.6280     7.0540    -0.6050 hc         1 ABO       0.033700
     91 H53         10.9180     6.3520    -3.8790 hc         1 ABO       0.093700
     92 H54         10.8860     5.2020    -5.2460 hc         1 ABO       0.093700
     93 H55         12.6670     6.9530    -5.4470 ho         1 ABO       0.468000
@<TRIPOS>BOND
     1     1     2 1   
     2     1    38 1   
     3     2     3 1   
     4     2    10 1   
     5     2    39 1   
     6     3     4 1   
     7     3    40 1   
     8     3    41 1   
     9     4     5 1   
    10     4    42 1   
    11     4    43 1   
    12     5     6 1   
    13     5    44 1   
    14     5    45 1   
    15     6     7 1   
    16     6    46 1   
    17     6    47 1   
    18     7     8 1   
    19     7    48 1   
    20     7    49 1   
    21     8     9 1   
    22     8    50 1   
    23     8    51 1   
    24     9    52 1   
    25     9    53 1   
    26     9    54 1   
    27    10    11 1   
    28    10    55 1   
    29    10    56 1   
    30    11    12 1   
    31    11    12 1   
    32    11    13 1   
    33    13    14 1   
    34    14    15 1   
    35    14    22 1   
    36    14    57 1   
    37    15    16 1   
    38    15    58 1   
    39    15    59 1   
    40    16    17 1   
    41    16    60 1   
    42    16    61 1   
    43    17    18 1   
    44    17    62 1   
    45    17    63 1   
    46    18    19 1   
    47    18    64 1   
    48    18    65 1   
    49    19    20 1   
    50    19    66 1   
    51    19    67 1   
    52    20    21 1   
    53    20    68 1   
    54    20    69 1   
    55    21    70 1   
    56    21    71 1   
    57    21    72 1   
    58    22    23 1   
    59    22    73 1   
    60    22    74 1   
    61    23    24 1   
    62    23    24 1   
    63    23    25 1   
    64    25    26 1   
    65    26    27 1   
    66    26    34 1   
    67    26    75 1   
    68    27    28 1   
    69    27    76 1   
    70    27    77 1   
    71    28    29 1   
    72    28    78 1   
    73    28    79 1   
    74    29    30 1   
    75    29    80 1   
    76    29    81 1   
    77    30    31 1   
    78    30    82 1   
    79    30    83 1   
    80    31    32 1   
    81    31    84 1   
    82    31    85 1   
    83    32    33 1   
    84    32    86 1   
    85    32    87 1   
    86    33    88 1   
    87    33    89 1   
    88    33    90 1   
    89    34    35 1   
    90    34    91 1   
    91    34    92 1   
    92    35    36 1   
    93    35    36 1   
    94    35    37 1   
    95    37    93 1   
@<TRIPOS>SUBSTRUCTURE
     1 ABO         1 TEMP              0 ****  ****    0 ROOT
