@<TRIPOS>MOLECULE
AMF
   57    59     1     0     0
SMALL
abcg2


@<TRIPOS>ATOM
      1 O            0.9510    -0.0470     0.0840 oh         1 AMF      -0.663000
      2 C            2.3700    -0.0220     0.0850 c3         1 AMF       0.155600
      3 C1           2.8940    -1.4490     0.0320 c3         1 AMF      -0.084400
      4 C2           4.4220    -1.4720     0.0320 c3         1 AMF      -0.078400
      5 C3           4.9460    -2.9040    -0.0220 c3         1 AMF      -0.078400
      6 C4           6.4780    -2.9750    -0.0240 c3         1 AMF      -0.077400
      7 C5           6.9350    -4.4200    -0.0780 c3         1 AMF       0.588000
      8 O1           6.1770    -5.3820    -0.1130 os         1 AMF      -0.543000
      9 O2           8.2990    -4.5190    -0.0810 os         1 AMF      -0.473000
     10 C6           8.7680    -5.8810    -0.1320 c3         1 AMF       0.162600
     11 C7          10.2960    -5.9170    -0.1330 c3         1 AMF      -0.085400
     12 C8          10.8310    -7.3560    -0.1870 c3         1 AMF      -0.078400
     13 C9          12.3610    -7.3830    -0.1880 c3         1 AMF      -0.078400
     14 C10         12.9410    -8.8050    -0.2400 c3         1 AMF      -0.077400
     15 C11         14.4600    -8.7560    -0.2390 c3         1 AMF       0.588000
     16 O3          15.1150    -7.7210    -0.2000 os         1 AMF      -0.544000
     17 O4          15.0080   -10.0080    -0.2850 os         1 AMF      -0.472000
     18 C12         16.4500    -9.9970    -0.2850 c3         1 AMF       0.162600
     19 C13         16.9940   -11.4250    -0.3380 c3         1 AMF      -0.085400
     20 C14         18.5300   -11.4450    -0.3380 c3         1 AMF      -0.078400
     21 C15         19.0670   -12.8740    -0.3910 c3         1 AMF      -0.074400
     22 C16         20.6000   -12.9390    -0.3940 c3         1 AMF      -0.123400
     23 C17         21.0600   -14.3810    -0.4470 c3         1 AMF       0.578000
     24 O5          20.3080   -15.3470    -0.4830 os         1 AMF      -0.484000
     25 O6          22.4020   -14.5320    -0.4530 oh         1 AMF      -0.628000
     26 H            0.6510     0.8770     0.1190 ho         1 AMF       0.439000
     27 H1           2.7110     0.4800     0.9960 h1         1 AMF       0.019700
     28 H2           2.7110     0.5460    -0.7860 h1         1 AMF       0.019700
     29 H3           2.5020    -1.9500    -0.8620 hc         1 AMF       0.058700
     30 H4           2.5020    -2.0150     0.8870 hc         1 AMF       0.058700
     31 H5           4.7960    -0.9740     0.9340 hc         1 AMF       0.040700
     32 H6           4.7960    -0.9080    -0.8320 hc         1 AMF       0.040700
     33 H7           4.5560    -3.3980    -0.9210 hc         1 AMF       0.059700
     34 H8           4.5560    -3.4630     0.8380 hc         1 AMF       0.059700
     35 H9           6.8690    -2.5070     0.8860 hc         1 AMF       0.077700
     36 H10          6.8690    -2.4410    -0.8970 hc         1 AMF       0.077700
     37 H11          8.3920    -6.3580    -1.0450 h1         1 AMF       0.052200
     38 H12          8.3920    -6.4250     0.7430 h1         1 AMF       0.052200
     39 H13         10.6730    -5.4080     0.7620 hc         1 AMF       0.057700
     40 H14         10.6730    -5.3430    -0.9890 hc         1 AMF       0.057700
     41 H15         10.4560    -7.8550    -1.0890 hc         1 AMF       0.044700
     42 H16         10.4560    -7.9200     0.6760 hc         1 AMF       0.044700
     43 H17         12.7310    -6.8740     0.7120 hc         1 AMF       0.059700
     44 H18         12.7310    -6.8090    -1.0470 hc         1 AMF       0.059700
     45 H19         12.6010    -9.3080    -1.1520 hc         1 AMF       0.079700
     46 H20         12.6010    -9.3740     0.6320 hc         1 AMF       0.079700
     47 H21         16.8080    -9.5060     0.6290 h1         1 AMF       0.051700
     48 H22         16.8080    -9.4400    -1.1590 h1         1 AMF       0.051700
     49 H23         16.6110   -11.9290    -1.2330 hc         1 AMF       0.058700
     50 H24         16.6110   -11.9940     0.5180 hc         1 AMF       0.058700
     51 H25         18.9060   -10.9470     0.5640 hc         1 AMF       0.042700
     52 H26         18.9060   -10.8820    -1.2010 hc         1 AMF       0.042700
     53 H27         18.6820   -13.3730    -1.2900 hc         1 AMF       0.063700
     54 H28         18.6820   -13.4380     0.4680 hc         1 AMF       0.063700
     55 H29         20.9930   -12.4730     0.5170 hc         1 AMF       0.070200
     56 H30         20.9930   -12.4070    -1.2670 hc         1 AMF       0.070200
     57 H31         22.9210   -13.7090    -0.4220 ho         1 AMF       0.461000
@<TRIPOS>BOND
     1     1     2 1   
     2     1    26 1   
     3     2     3 1   
     4     2    27 1   
     5     2    28 1   
     6     3     4 1   
     7     3    29 1   
     8     3    30 1   
     9     4     5 1   
    10     4    31 1   
    11     4    32 1   
    12     5     6 1   
    13     5    33 1   
    14     5    34 1   
    15     6     7 1   
    16     6    35 1   
    17     6    36 1   
    18     7     8 1   
    19     7     8 1   
    20     7     9 1   
    21     9    10 1   
    22    10    11 1   
    23    10    37 1   
    24    10    38 1   
    25    11    12 1   
    26    11    39 1   
    27    11    40 1   
    28    12    13 1   
    29    12    41 1   
    30    12    42 1   
    31    13    14 1   
    32    13    43 1   
    33    13    44 1   
    34    14    15 1   
    35    14    45 1   
    36    14    46 1   
    37    15    16 1   
    38    15    16 1   
    39    15    17 1   
    40    17    18 1   
    41    18    19 1   
    42    18    47 1   
    43    18    48 1   
    44    19    20 1   
    45    19    49 1   
    46    19    50 1   
    47    20    21 1   
    48    20    51 1   
    49    20    52 1   
    50    21    22 1   
    51    21    53 1   
    52    21    54 1   
    53    22    23 1   
    54    22    55 1   
    55    22    56 1   
    56    23    24 1   
    57    23    24 1   
    58    23    25 1   
    59    25    57 1   
@<TRIPOS>SUBSTRUCTURE
     1 AMF         1 TEMP              0 ****  ****    0 ROOT
