@<TRIPOS>MOLECULE
ALD
   96   110     1     0     0
SMALL
abcg2


@<TRIPOS>ATOM
      1 O            6.4180     0.4840    -1.0260 oh         1 ALD      -0.668000
      2 C            7.6260     1.1080    -1.4250 c3         1 ALD       0.181300
      3 C1           7.7860     1.0730    -2.9690 c3         1 ALD      -0.084400
      4 C2           8.8220     1.5290    -4.0220 c3         1 ALD      -0.077400
      5 C3           8.6540     1.3030    -5.5240 c3         1 ALD      -0.046400
      6 C4           7.5850     0.3370    -5.9020 c3         1 ALD      -0.071000
      7 C5           7.5740    -0.1140    -7.1970 c3         1 ALD      -0.090700
      8 C6           6.5110    -0.9210    -7.5930 c3         1 ALD      -0.067000
      9 C7           6.3730    -1.2760    -9.0210 c3         1 ALD      -0.061100
     10 C8           5.5230    -1.3700    -6.7000 c3         1 ALD      -0.092700
     11 C9           5.5930    -1.0320    -5.3930 c3         1 ALD      -0.084700
     12 C10          6.5760    -0.1530    -5.0580 c3         1 ALD      -0.090700
     13 C11          8.7010     0.2930    -0.7940 c3         1 ALD      -0.161400
     14 C12          9.1030     0.3080     0.6630 c3         1 ALD       0.582000
     15 O1           8.3710     0.9220     1.4680 os         1 ALD      -0.510000
     16 O2          10.2790    -0.2330     1.1010 os         1 ALD      -0.445000
     17 C13         11.5190    -0.9260     0.5840 c3         1 ALD       0.177300
     18 C14         12.0300    -0.4970    -0.7550 c3         1 ALD      -0.110400
     19 C15         11.4890     0.7980    -1.1650 c3         1 ALD      -0.077400
     20 C16         11.1840     1.0520    -2.5980 c3         1 ALD      -0.044400
     21 C17         12.1220     0.6320    -3.6410 c3         1 ALD      -0.074000
     22 C18         12.1500     1.1930    -4.8970 c3         1 ALD      -0.098700
     23 C19         13.0890     0.6920    -5.7890 c3         1 ALD      -0.071000
     24 C20         13.1560     1.2060    -7.1760 c3         1 ALD      -0.064100
     25 C21         14.0310    -0.2710    -5.3860 c3         1 ALD      -0.089700
     26 C22         13.9380    -0.8650    -4.1680 c3         1 ALD      -0.079700
     27 C23         12.8840    -0.5010    -3.4150 c3         1 ALD      -0.092700
     28 C24         11.3000    -2.4310     0.5070 c3         1 ALD      -0.154400
     29 C25         11.4190    -2.9760     1.8840 c3         1 ALD       0.596000
     30 O3          11.6980    -2.2600     2.8620 os         1 ALD      -0.490000
     31 O4          11.2120    -4.2950     2.0420 os         1 ALD      -0.454000
     32 C26         10.9320    -5.1970     0.9310 c3         1 ALD       0.174300
     33 C27          9.4490    -5.2200     0.8220 c3         1 ALD      -0.113400
     34 C28          8.7090    -5.8140    -0.3300 c3         1 ALD      -0.075400
     35 C29          7.1680    -5.6990    -0.1320 c3         1 ALD      -0.044400
     36 C30          6.5520    -5.3570     1.2360 c3         1 ALD      -0.074000
     37 C31          5.1870    -5.5480     1.4330 c3         1 ALD      -0.091700
     38 C32          4.6010    -5.2290     2.6790 c3         1 ALD      -0.067000
     39 C33          3.1350    -5.3610     2.9030 c3         1 ALD      -0.063100
     40 C34          5.3620    -4.7630     3.7600 c3         1 ALD      -0.092700
     41 C35          6.6950    -4.5700     3.5960 c3         1 ALD      -0.084700
     42 C36          7.2220    -4.7910     2.3430 c3         1 ALD      -0.095700
     43 C37         11.4160    -6.5730     1.3560 c3         1 ALD      -0.132400
     44 C38         12.9110    -6.5390     1.3520 c3         1 ALD       0.585000
     45 O5          13.5790    -5.5480     1.0830 os         1 ALD      -0.499000
     46 O6          13.4710    -7.7300     1.6360 oh         1 ALD      -0.618000
     47 H            6.5110     0.3620    -0.0570 ho         1 ALD       0.464000
     48 H1           7.6400     2.1500    -1.0970 h1         1 ALD       0.046700
     49 H2           7.8540    -0.0220    -3.1020 hc         1 ALD       0.063700
     50 H3           6.8890     1.5960    -3.2950 hc         1 ALD       0.063700
     51 H4           9.5680     0.7680    -4.0150 hc         1 ALD       0.045200
     52 H5           9.2240     2.5230    -3.8300 hc         1 ALD       0.045200
     53 H6           9.5980     0.8490    -5.9110 hc         1 ALD       0.049200
     54 H7           8.6220     2.2590    -6.0550 hc         1 ALD       0.049200
     55 H8           8.3490     0.2020    -7.8950 hc         1 ALD       0.089700
     56 H9           7.2080    -0.8780    -9.6010 hc         1 ALD       0.044033
     57 H10          5.4410    -0.8340    -9.3790 hc         1 ALD       0.044033
     58 H11          6.3580    -2.3630    -9.0930 hc         1 ALD       0.044033
     59 H12          4.6720    -1.9510    -7.0140 hc         1 ALD       0.091700
     60 H13          4.8960    -1.3250    -4.6150 hc         1 ALD       0.092700
     61 H14          6.3740     0.0960    -4.0450 hc         1 ALD       0.095700
     62 H15          9.3280     1.0670    -1.1880 hc         1 ALD       0.084200
     63 H16          8.8020    -0.7140    -1.2330 hc         1 ALD       0.084200
     64 H17         12.3560    -0.6650     1.2390 h1         1 ALD       0.113700
     65 H18         13.1090    -0.4350    -0.8380 hc         1 ALD       0.058200
     66 H19         11.5750    -1.2670    -1.4180 hc         1 ALD       0.058200
     67 H20         11.2780     1.6120    -0.4620 hc         1 ALD       0.057700
     68 H21         10.6140     0.2420    -1.0230 hc         1 ALD       0.057700
     69 H22         10.8020     2.0750    -2.6900 hc         1 ALD       0.051700
     70 H23         10.3960     0.3040    -2.7480 hc         1 ALD       0.051700
     71 H24         11.4400     1.9610    -5.2030 hc         1 ALD       0.088700
     72 H25         12.3220     1.8760    -7.4010 hc         1 ALD       0.044367
     73 H26         13.1200     0.3590    -7.8660 hc         1 ALD       0.044367
     74 H27         14.0970     1.7470    -7.2690 hc         1 ALD       0.044367
     75 H28         14.8230    -0.6080    -6.0330 hc         1 ALD       0.093700
     76 H29         14.5810    -1.6320    -3.7610 hc         1 ALD       0.096700
     77 H30         12.7310    -1.2110    -2.6410 hc         1 ALD       0.096700
     78 H31         12.0720    -2.9040    -0.1220 hc         1 ALD       0.090200
     79 H32         10.3160    -2.6280     0.0670 hc         1 ALD       0.090200
     80 H33         11.3750    -4.8660    -0.0060 h1         1 ALD       0.075700
     81 H34          9.1590    -5.8290     1.6880 hc         1 ALD       0.063700
     82 H35          9.1240    -4.1750     0.8690 hc         1 ALD       0.063700
     83 H36          8.9970    -6.8630    -0.4440 hc         1 ALD       0.044700
     84 H37          9.0060    -5.2930    -1.2480 hc         1 ALD       0.044700
     85 H38          6.7590    -6.6650    -0.4670 hc         1 ALD       0.055700
     86 H39          6.7980    -4.9640    -0.8600 hc         1 ALD       0.055700
     87 H40          4.5620    -5.9140     0.6200 hc         1 ALD       0.093700
     88 H41          2.6300    -5.7310     2.0100 hc         1 ALD       0.045700
     89 H42          2.7290    -4.3790     3.1630 hc         1 ALD       0.045700
     90 H43          2.9710    -6.0610     3.7270 hc         1 ALD       0.045700
     91 H44          4.9250    -4.5090     4.7180 hc         1 ALD       0.093700
     92 H45          7.3550    -4.2040     4.3780 hc         1 ALD       0.093700
     93 H46          8.2290    -4.4300     2.3840 hc         1 ALD       0.093700
     94 H47         11.0570    -7.3210     0.6430 hc         1 ALD       0.094700
     95 H48         11.0550    -6.8280     2.3630 hc         1 ALD       0.094700
     96 H49         12.8370    -8.4460     1.8280 ho         1 ALD       0.467000
@<TRIPOS>BOND
     1     1     2 1   
     2     1    47 1   
     3     2     3 1   
     4     2    13 1   
     5     2    48 1   
     6     3     4 1   
     7     3    49 1   
     8     3    50 1   
     9     4     5 1   
    10     4    51 1   
    11     4    52 1   
    12     5     6 1   
    13     5    53 1   
    14     5    54 1   
    15     6     7 1   
    16     6     7 1   
    17     6    12 1   
    18     7     8 1   
    19     7    55 1   
    20     8     9 1   
    21     8    10 1   
    22     8    10 1   
    23     9    56 1   
    24     9    57 1   
    25     9    58 1   
    26    10    11 1   
    27    10    59 1   
    28    11    12 1   
    29    11    12 1   
    30    11    60 1   
    31    12    61 1   
    32    13    14 1   
    33    13    62 1   
    34    13    63 1   
    35    14    15 1   
    36    14    15 1   
    37    14    16 1   
    38    16    17 1   
    39    17    18 1   
    40    17    28 1   
    41    17    64 1   
    42    18    19 1   
    43    18    65 1   
    44    18    66 1   
    45    19    20 1   
    46    19    67 1   
    47    19    68 1   
    48    20    21 1   
    49    20    69 1   
    50    20    70 1   
    51    21    22 1   
    52    21    22 1   
    53    21    27 1   
    54    22    23 1   
    55    22    71 1   
    56    23    24 1   
    57    23    25 1   
    58    23    25 1   
    59    24    72 1   
    60    24    73 1   
    61    24    74 1   
    62    25    26 1   
    63    25    75 1   
    64    26    27 1   
    65    26    27 1   
    66    26    76 1   
    67    27    77 1   
    68    28    29 1   
    69    28    78 1   
    70    28    79 1   
    71    29    30 1   
    72    29    30 1   
    73    29    31 1   
    74    31    32 1   
    75    32    33 1   
    76    32    43 1   
    77    32    80 1   
    78    33    34 1   
    79    33    81 1   
    80    33    82 1   
    81    34    35 1   
    82    34    83 1   
    83    34    84 1   
    84    35    36 1   
    85    35    85 1   
    86    35    86 1   
    87    36    37 1   
    88    36    37 1   
    89    36    42 1   
    90    37    38 1   
    91    37    87 1   
    92    38    39 1   
    93    38    40 1   
    94    38    40 1   
    95    39    88 1   
    96    39    89 1   
    97    39    90 1   
    98    40    41 1   
    99    40    91 1   
   100    41    42 1   
   101    41    42 1   
   102    41    92 1   
   103    42    93 1   
   104    43    44 1   
   105    43    94 1   
   106    43    95 1   
   107    44    45 1   
   108    44    45 1   
   109    44    46 1   
   110    46    96 1   
@<TRIPOS>SUBSTRUCTURE
     1 ALD         1 TEMP              0 ****  ****    0 ROOT
