@<TRIPOS>MOLECULE
ADS
   78    92     1     0     0
SMALL
abcg2


@<TRIPOS>ATOM
      1 O           12.2650     2.6520    -3.2430 oh         1 ADS      -0.669000
      2 C           13.2460     2.4340    -2.2300 c3         1 ADS       0.181300
      3 C1          14.4950     1.8190    -2.8700 c3         1 ADS      -0.072400
      4 C2          14.1780     0.8020    -3.9800 c3         1 ADS      -0.045400
      5 C3          15.4480     0.3270    -4.6330 c3         1 ADS      -0.070000
      6 C4          15.9760    -0.9460    -4.4010 c3         1 ADS      -0.088700
      7 C5          17.2130    -1.2930    -4.9480 c3         1 ADS      -0.090200
      8 C6          17.8860    -0.4010    -5.7860 c3         1 ADS      -0.094700
      9 C7          17.3520     0.8590    -6.0380 c3         1 ADS      -0.090200
     10 C8          16.1430     1.2220    -5.4580 c3         1 ADS      -0.086700
     11 C9          12.6940     1.4980    -1.1710 c3         1 ADS      -0.167400
     12 C10         11.4670     2.0470    -0.4950 c3         1 ADS       0.594000
     13 O1          10.9320     3.0910    -0.8600 os         1 ADS      -0.516000
     14 O2          10.8940     1.2630     0.4520 os         1 ADS      -0.457000
     15 C11         11.5770     0.1220     1.0210 c3         1 ADS       0.179300
     16 C12         11.0880    -1.1240     0.2700 c3         1 ADS      -0.090400
     17 C13         12.2750    -1.8060    -0.4050 c3         1 ADS      -0.050400
     18 C14         11.8490    -3.0540    -1.1030 c3         1 ADS      -0.075000
     19 C15         11.6790    -3.1080    -2.4910 c3         1 ADS      -0.087700
     20 C16         11.2020    -4.2780    -3.0770 c3         1 ADS      -0.089700
     21 C17         10.9620    -5.4050    -2.2880 c3         1 ADS      -0.090700
     22 C18         11.1400    -5.3500    -0.9070 c3         1 ADS      -0.089700
     23 C19         11.5720    -4.1740    -0.3170 c3         1 ADS      -0.082700
     24 C20         11.1930     0.0160     2.4870 c3         1 ADS      -0.151400
     25 C21         11.5290     1.2640     3.2780 c3         1 ADS       0.597000
     26 O3          12.1180     2.2150     2.7700 os         1 ADS      -0.514000
     27 O4          11.1270     1.3340     4.5760 os         1 ADS      -0.456000
     28 C22         10.7000     0.2080     5.3850 c3         1 ADS       0.177300
     29 C23          9.1680     0.2270     5.4440 c3         1 ADS      -0.089400
     30 C24          8.5780    -0.2880     4.1380 c3         1 ADS      -0.044400
     31 C25          7.1000    -0.4140     4.1390 c3         1 ADS      -0.078000
     32 C26          6.3190     0.4690     3.3820 c3         1 ADS      -0.085700
     33 C27          4.9390     0.4220     3.4970 c3         1 ADS      -0.088200
     34 C28          4.3490    -0.5630     4.2880 c3         1 ADS      -0.088700
     35 C29          5.1320    -1.4760     4.9950 c3         1 ADS      -0.088200
     36 C30          6.5110    -1.4010     4.9230 c3         1 ADS      -0.085700
     37 C31         11.2760     0.3460     6.8090 c3         1 ADS      -0.150400
     38 C32         12.7830     0.2950     6.7800 c3         1 ADS       0.590000
     39 O5          13.4510     0.1540     5.7570 os         1 ADS      -0.515000
     40 O6          13.3660     0.3620     7.9950 oh         1 ADS      -0.614000
     41 H           11.4840     3.0430    -2.7990 ho         1 ADS       0.462000
     42 H1          13.4990     3.3990    -1.7790 h1         1 ADS       0.048700
     43 H2          15.0860     2.6420    -3.2910 hc         1 ADS       0.057700
     44 H3          15.1350     1.3560    -2.1060 hc         1 ADS       0.057700
     45 H4          13.5610     1.2660    -4.7600 hc         1 ADS       0.055200
     46 H5          13.6020    -0.0440    -3.5890 hc         1 ADS       0.055200
     47 H6          15.4400    -1.6720    -3.7930 hc         1 ADS       0.090700
     48 H7          17.6610    -2.2550    -4.7160 hc         1 ADS       0.090200
     49 H8          18.8260    -0.6890    -6.2460 hc         1 ADS       0.089700
     50 H9          17.8760     1.5670    -6.6720 hc         1 ADS       0.090200
     51 H10         15.7360     2.2160    -5.6380 hc         1 ADS       0.096700
     52 H11         13.4820     1.3050    -0.4380 hc         1 ADS       0.100200
     53 H12         12.3760     0.5950    -1.6850 hc         1 ADS       0.100200
     54 H13         12.6600     0.2360     0.9930 h1         1 ADS       0.074700
     55 H14         10.6150    -1.8350     0.9640 hc         1 ADS       0.065200
     56 H15         10.3060    -0.8760    -0.4620 hc         1 ADS       0.065200
     57 H16         13.0340    -2.0460     0.3470 hc         1 ADS       0.056200
     58 H17         12.7730    -1.1600    -1.1220 hc         1 ADS       0.056200
     59 H18         11.9100    -2.2510    -3.1230 hc         1 ADS       0.090700
     60 H19         11.0100    -4.3140    -4.1460 hc         1 ADS       0.091700
     61 H20         10.6360    -6.3310    -2.7500 hc         1 ADS       0.091700
     62 H21         10.9360    -6.2150    -0.2850 hc         1 ADS       0.091700
     63 H22         11.6930    -4.1190     0.7620 hc         1 ADS       0.101700
     64 H23         11.6600    -0.8610     2.9400 hc         1 ADS       0.110700
     65 H24         10.1310    -0.1320     2.4250 hc         1 ADS       0.110700
     66 H25         11.0670    -0.7330     4.9650 h1         1 ADS       0.076700
     67 H26          8.8090    -0.3760     6.2830 hc         1 ADS       0.062700
     68 H27          8.8100     1.2540     5.5960 hc         1 ADS       0.062700
     69 H28          9.0160    -1.2610     3.8740 hc         1 ADS       0.054200
     70 H29          8.7880     0.4550     3.3730 hc         1 ADS       0.054200
     71 H30          6.7790     1.2020     2.7190 hc         1 ADS       0.095700
     72 H31          4.3290     1.1580     2.9820 hc         1 ADS       0.093700
     73 H32          3.2680    -0.6230     4.3500 hc         1 ADS       0.093700
     74 H33          4.6750    -2.2350     5.6200 hc         1 ADS       0.093700
     75 H34          7.1350    -2.0970     5.4780 hc         1 ADS       0.090700
     76 H35         10.9260    -0.4990     7.4170 hc         1 ADS       0.093700
     77 H36         10.9520     1.2830     7.2750 hc         1 ADS       0.093700
     78 H37         12.7670     0.4500     8.7610 ho         1 ADS       0.469000
@<TRIPOS>BOND
     1     1     2 1   
     2     1    41 1   
     3     2     3 1   
     4     2    11 1   
     5     2    42 1   
     6     3     4 1   
     7     3    43 1   
     8     3    44 1   
     9     4     5 1   
    10     4    45 1   
    11     4    46 1   
    12     5     6 1   
    13     5     6 1   
    14     5    10 1   
    15     6     7 1   
    16     6    47 1   
    17     7     8 1   
    18     7     8 1   
    19     7    48 1   
    20     8     9 1   
    21     8    49 1   
    22     9    10 1   
    23     9    10 1   
    24     9    50 1   
    25    10    51 1   
    26    11    12 1   
    27    11    52 1   
    28    11    53 1   
    29    12    13 1   
    30    12    13 1   
    31    12    14 1   
    32    14    15 1   
    33    15    16 1   
    34    15    24 1   
    35    15    54 1   
    36    16    17 1   
    37    16    55 1   
    38    16    56 1   
    39    17    18 1   
    40    17    57 1   
    41    17    58 1   
    42    18    19 1   
    43    18    19 1   
    44    18    23 1   
    45    19    20 1   
    46    19    59 1   
    47    20    21 1   
    48    20    21 1   
    49    20    60 1   
    50    21    22 1   
    51    21    61 1   
    52    22    23 1   
    53    22    23 1   
    54    22    62 1   
    55    23    63 1   
    56    24    25 1   
    57    24    64 1   
    58    24    65 1   
    59    25    26 1   
    60    25    26 1   
    61    25    27 1   
    62    27    28 1   
    63    28    29 1   
    64    28    37 1   
    65    28    66 1   
    66    29    30 1   
    67    29    67 1   
    68    29    68 1   
    69    30    31 1   
    70    30    69 1   
    71    30    70 1   
    72    31    32 1   
    73    31    32 1   
    74    31    36 1   
    75    32    33 1   
    76    32    71 1   
    77    33    34 1   
    78    33    34 1   
    79    33    72 1   
    80    34    35 1   
    81    34    73 1   
    82    35    36 1   
    83    35    36 1   
    84    35    74 1   
    85    36    75 1   
    86    37    38 1   
    87    37    76 1   
    88    37    77 1   
    89    38    39 1   
    90    38    39 1   
    91    38    40 1   
    92    40    78 1   
@<TRIPOS>SUBSTRUCTURE
     1 ADS         1 TEMP              0 ****  ****    0 ROOT
