@<TRIPOS>MOLECULE
ABK
   84    86     1     0     0
SMALL
abcg2


@<TRIPOS>ATOM
      1 O           12.7970    -0.0710    -4.0050 oh         1 ABK      -0.668000
      2 C           13.5120     0.9820    -3.3520 c3         1 ABK       0.182300
      3 C1          15.0220     0.8070    -3.5820 c3         1 ABK      -0.075400
      4 C2          15.3480    -0.4550    -4.3670 c3         1 ABK      -0.079400
      5 C3          16.8400    -0.6060    -4.5820 c3         1 ABK      -0.078400
      6 C4          17.1080    -1.8780    -5.3740 c3         1 ABK      -0.078400
      7 C5          18.6000    -2.0500    -5.6050 c3         1 ABK      -0.080400
      8 C6          18.8700    -3.3150    -6.3940 c3         1 ABK      -0.092100
      9 C7          13.1970     0.9660    -1.8590 c3         1 ABK      -0.166400
     10 C8          11.7100     1.1270    -1.6300 c3         1 ABK       0.595000
     11 O1          10.9110     1.2170    -2.5620 os         1 ABK      -0.519000
     12 O2          11.2550     1.0920    -0.3520 os         1 ABK      -0.456000
     13 C9          12.1170     0.8360     0.7780 c3         1 ABK       0.178300
     14 C10         12.0300    -0.6500     1.1680 c3         1 ABK      -0.095400
     15 C11         11.6270    -1.5480     0.0050 c3         1 ABK      -0.082400
     16 C12         11.5850    -3.0060     0.4010 c3         1 ABK      -0.077400
     17 C13         11.1890    -3.8330    -0.8140 c3         1 ABK      -0.080400
     18 C14         11.1380    -5.3040    -0.4460 c3         1 ABK      -0.079400
     19 C15         10.7410    -6.1360    -1.6470 c3         1 ABK      -0.093100
     20 C16         11.6610     1.7190     1.9390 c3         1 ABK      -0.145400
     21 C17         11.7490     3.1850     1.5620 c3         1 ABK       0.599000
     22 O3          12.1350     3.5670     0.4600 os         1 ABK      -0.515000
     23 O4          11.3570     4.0950     2.4910 os         1 ABK      -0.454000
     24 C18         10.8400     3.7480     3.7960 c3         1 ABK       0.177300
     25 C19          9.3020     3.7680     3.7690 c3         1 ABK      -0.093400
     26 C20          8.7290     3.7440     2.3560 c3         1 ABK      -0.083400
     27 C21          7.2170     3.7410     2.3580 c3         1 ABK      -0.076400
     28 C22          6.7190     3.7160     0.9190 c3         1 ABK      -0.081400
     29 C23          5.2010     3.7150     0.8930 c3         1 ABK      -0.079400
     30 C24          4.6970     3.6920    -0.5360 c3         1 ABK      -0.093100
     31 C25         11.3920     4.7630     4.8080 c3         1 ABK      -0.148400
     32 C26         12.9020     4.7120     4.8130 c3         1 ABK       0.588000
     33 O5          13.5740     3.9420     4.1330 os         1 ABK      -0.510000
     34 O6          13.4810     5.5730     5.6750 oh         1 ABK      -0.615000
     35 H           11.8430     0.1240    -3.9030 ho         1 ABK       0.460000
     36 H1          13.1900     1.9320    -3.7940 h1         1 ABK       0.046700
     37 H2          15.4020     1.6840    -4.1210 hc         1 ABK       0.052700
     38 H3          15.5680     0.8000    -2.6280 hc         1 ABK       0.052700
     39 H4          14.8470    -0.4230    -5.3420 hc         1 ABK       0.046700
     40 H5          14.9700    -1.3330    -3.8270 hc         1 ABK       0.046700
     41 H6          17.3540    -0.6490    -3.6150 hc         1 ABK       0.039700
     42 H7          17.2260     0.2640    -5.1250 hc         1 ABK       0.039700
     43 H8          16.5810    -1.8340    -6.3360 hc         1 ABK       0.039700
     44 H9          16.7100    -2.7440    -4.8300 hc         1 ABK       0.039700
     45 H10         19.1220    -2.0950    -4.6430 hc         1 ABK       0.038200
     46 H11         18.9930    -1.1840    -6.1510 hc         1 ABK       0.038200
     47 H12         18.5010    -4.1930    -5.8530 hc         1 ABK       0.032033
     48 H13         19.9430    -3.4350    -6.5580 hc         1 ABK       0.032033
     49 H14         18.3710    -3.2780    -7.3680 hc         1 ABK       0.032033
     50 H15         13.7360     1.7800    -1.3670 hc         1 ABK       0.099700
     51 H16         13.5390     0.0090    -1.4560 hc         1 ABK       0.099700
     52 H17         13.1560     1.0880     0.5550 h1         1 ABK       0.076700
     53 H18         12.9990    -0.9640     1.5760 hc         1 ABK       0.062200
     54 H19         11.3020    -0.7940     1.9770 hc         1 ABK       0.062200
     55 H20         12.3340    -1.4500    -0.8190 hc         1 ABK       0.044200
     56 H21         10.6380    -1.2560    -0.3700 hc         1 ABK       0.044200
     57 H22         10.8640    -3.1500     1.2120 hc         1 ABK       0.042200
     58 H23         12.5710    -3.3180     0.7640 hc         1 ABK       0.042200
     59 H24         11.9090    -3.6730    -1.6280 hc         1 ABK       0.041700
     60 H25         10.2110    -3.5020    -1.1880 hc         1 ABK       0.041700
     61 H26         10.4170    -5.4560     0.3650 hc         1 ABK       0.038700
     62 H27         12.1190    -5.6270    -0.0790 hc         1 ABK       0.038700
     63 H28          9.7540    -5.8380    -2.0150 hc         1 ABK       0.033033
     64 H29         10.7050    -7.1940    -1.3750 hc         1 ABK       0.033033
     65 H30         11.4620    -6.0110    -2.4610 hc         1 ABK       0.033033
     66 H31         12.3110     1.5270     2.7970 hc         1 ABK       0.108200
     67 H32         10.6270     1.4630     2.1940 hc         1 ABK       0.108200
     68 H33         11.1750     2.7530     4.1020 h1         1 ABK       0.077700
     69 H34          8.9280     2.9080     4.3400 hc         1 ABK       0.058200
     70 H35          8.9180     4.6550     4.2880 hc         1 ABK       0.058200
     71 H36          9.0690     2.8540     1.8200 hc         1 ABK       0.047200
     72 H37          9.0820     4.6200     1.7980 hc         1 ABK       0.047200
     73 H38          6.8450     4.6340     2.8720 hc         1 ABK       0.040700
     74 H39          6.8490     2.8620     2.9000 hc         1 ABK       0.040700
     75 H40          7.1060     2.8260     0.4060 hc         1 ABK       0.044700
     76 H41          7.1050     4.5890     0.3760 hc         1 ABK       0.044700
     77 H42          4.8220     4.6060     1.4050 hc         1 ABK       0.037700
     78 H43          4.8230     2.8390     1.4330 hc         1 ABK       0.037700
     79 H44          5.0510     4.5710    -1.0840 hc         1 ABK       0.034367
     80 H45          3.6040     3.6920    -0.5490 hc         1 ABK       0.034367
     81 H46          5.0510     2.7970    -1.0570 hc         1 ABK       0.034367
     82 H47         11.0270     4.5140     5.8110 hc         1 ABK       0.092700
     83 H48         11.0710     5.7780     4.5440 hc         1 ABK       0.092700
     84 H49         12.8750     6.1360     6.1910 ho         1 ABK       0.468000
@<TRIPOS>BOND
     1     1     2 1   
     2     1    35 1   
     3     2     3 1   
     4     2     9 1   
     5     2    36 1   
     6     3     4 1   
     7     3    37 1   
     8     3    38 1   
     9     4     5 1   
    10     4    39 1   
    11     4    40 1   
    12     5     6 1   
    13     5    41 1   
    14     5    42 1   
    15     6     7 1   
    16     6    43 1   
    17     6    44 1   
    18     7     8 1   
    19     7    45 1   
    20     7    46 1   
    21     8    47 1   
    22     8    48 1   
    23     8    49 1   
    24     9    10 1   
    25     9    50 1   
    26     9    51 1   
    27    10    11 1   
    28    10    11 1   
    29    10    12 1   
    30    12    13 1   
    31    13    14 1   
    32    13    20 1   
    33    13    52 1   
    34    14    15 1   
    35    14    53 1   
    36    14    54 1   
    37    15    16 1   
    38    15    55 1   
    39    15    56 1   
    40    16    17 1   
    41    16    57 1   
    42    16    58 1   
    43    17    18 1   
    44    17    59 1   
    45    17    60 1   
    46    18    19 1   
    47    18    61 1   
    48    18    62 1   
    49    19    63 1   
    50    19    64 1   
    51    19    65 1   
    52    20    21 1   
    53    20    66 1   
    54    20    67 1   
    55    21    22 1   
    56    21    22 1   
    57    21    23 1   
    58    23    24 1   
    59    24    25 1   
    60    24    31 1   
    61    24    68 1   
    62    25    26 1   
    63    25    69 1   
    64    25    70 1   
    65    26    27 1   
    66    26    71 1   
    67    26    72 1   
    68    27    28 1   
    69    27    73 1   
    70    27    74 1   
    71    28    29 1   
    72    28    75 1   
    73    28    76 1   
    74    29    30 1   
    75    29    77 1   
    76    29    78 1   
    77    30    79 1   
    78    30    80 1   
    79    30    81 1   
    80    31    32 1   
    81    31    82 1   
    82    31    83 1   
    83    32    33 1   
    84    32    33 1   
    85    32    34 1   
    86    34    84 1   
@<TRIPOS>SUBSTRUCTURE
     1 ABK         1 TEMP              0 ****  ****    0 ROOT
