@<TRIPOS>MOLECULE
AII
   84   101     1     0     0
SMALL
abcg2


@<TRIPOS>ATOM
      1 O            9.6020     1.4130     4.1090 oh         1 AII      -0.670000
      2 C           10.9210     0.9300     3.8510 c3         1 AII       0.182300
      3 C1          11.8850     2.1160     3.9090 c3         1 AII      -0.071400
      4 C2          11.4910     3.2620     2.9630 c3         1 AII      -0.125400
      5 C3          12.4810     4.3980     3.0460 c3         1 AII       0.459000
      6 O1          13.4960     4.3490     3.7360 os         1 AII      -0.488000
      7 C4          12.2210     5.6190     2.2460 c3         1 AII      -0.156000
      8 C5          13.3180     6.3340     1.7550 c3         1 AII      -0.035700
      9 C6          13.1340     7.6200     1.2500 c3         1 AII      -0.105700
     10 C7          11.8490     8.1520     1.1510 c3         1 AII      -0.062700
     11 C8          10.7470     7.4070     1.5710 c3         1 AII      -0.105700
     12 C9          10.9290     6.1370     2.1180 c3         1 AII      -0.052700
     13 C10         10.9720     0.3010     2.4750 c3         1 AII      -0.166400
     14 C11         10.0190    -0.8460     2.3180 c3         1 AII       0.599000
     15 O2           9.2610    -1.2040     3.2140 os         1 AII      -0.521000
     16 O3           9.9520    -1.3870     1.0750 os         1 AII      -0.466000
     17 C12         10.8280    -0.9700    -0.0100 c3         1 AII       0.177300
     18 C13         10.2550     0.3390    -0.6750 c3         1 AII      -0.086400
     19 C14          8.7620     0.3190    -1.0460 c3         1 AII      -0.129400
     20 C15          8.1450     1.6880    -1.6310 c3         1 AII       0.461000
     21 O4           8.9330     2.5920    -1.9160 os         1 AII      -0.487000
     22 C16          6.6260     1.9690    -1.9890 c3         1 AII      -0.155000
     23 C17          6.2500     2.3230    -3.2870 c3         1 AII      -0.033700
     24 C18          4.8860     2.5410    -3.6210 c3         1 AII      -0.104200
     25 C19          3.8600     2.1310    -2.7840 c3         1 AII      -0.060700
     26 C20          4.2040     1.7980    -1.5000 c3         1 AII      -0.104200
     27 C21          5.5520     1.9390    -1.0670 c3         1 AII      -0.052700
     28 C22         10.8790    -2.1260    -1.0140 c3         1 AII      -0.146400
     29 C23         11.3150    -3.4780    -0.4620 c3         1 AII       0.596000
     30 O5          11.7360    -3.6000     0.6850 os         1 AII      -0.513000
     31 O6          11.1630    -4.5880    -1.2470 os         1 AII      -0.452000
     32 C24         10.7450    -4.6340    -2.6430 c3         1 AII       0.177300
     33 C25          9.2220    -4.8020    -2.7160 c3         1 AII      -0.087400
     34 C26          8.4540    -3.6970    -2.0480 c3         1 AII      -0.132400
     35 C27          6.9710    -3.8980    -2.0860 c3         1 AII       0.464000
     36 O7           6.4080    -4.8670    -2.6340 os         1 AII      -0.492000
     37 C28          6.1360    -2.8740    -1.5020 c3         1 AII      -0.162000
     38 C29          5.0210    -3.1250    -0.6900 c3         1 AII      -0.033700
     39 C30          4.2130    -2.0850    -0.2540 c3         1 AII      -0.104200
     40 C31          4.8080    -0.8770    -0.1920 c3         1 AII      -0.058700
     41 C32          5.9740    -0.7250    -0.9020 c3         1 AII      -0.104200
     42 C33          6.4770    -1.6010    -1.8040 c3         1 AII      -0.048700
     43 C34         11.3450    -5.8790    -3.3410 c3         1 AII      -0.150400
     44 C35         12.8500    -5.8300    -3.3620 c3         1 AII       0.588000
     45 O8          13.5130    -4.9140    -2.9040 os         1 AII      -0.514000
     46 O9          13.4260    -6.8840    -3.9840 oh         1 AII      -0.612000
     47 H            9.0170     0.6260     4.1220 ho         1 AII       0.463000
     48 H1          11.1830     0.1920     4.6150 h1         1 AII       0.051700
     49 H2          11.8980     2.5030     4.9350 hc         1 AII       0.067700
     50 H3          12.9040     1.7770     3.6790 hc         1 AII       0.067700
     51 H4          10.4900     3.6140     3.2260 hc         1 AII       0.075700
     52 H5          11.4880     2.9310     1.9190 hc         1 AII       0.075700
     53 H6          14.3180     5.9070     1.8020 hc         1 AII       0.115700
     54 H7          13.9960     8.2200     0.9720 hc         1 AII       0.097200
     55 H8          11.7070     9.1540     0.7550 hc         1 AII       0.094700
     56 H9           9.7490     7.8340     1.5180 hc         1 AII       0.097200
     57 H10         10.0610     5.6000     2.4880 hc         1 AII       0.097700
     58 H11         11.9910    -0.0140     2.2420 hc         1 AII       0.099700
     59 H12         10.6340     1.0660     1.7880 hc         1 AII       0.099700
     60 H13         11.8470    -0.8210     0.3550 h1         1 AII       0.079700
     61 H14         10.3550     1.1910    -0.0120 hc         1 AII       0.071200
     62 H15         10.8400     0.5630    -1.5670 hc         1 AII       0.071200
     63 H16          8.2660    -0.0190    -0.1310 hc         1 AII       0.077200
     64 H17          8.7290    -0.4390    -1.8240 hc         1 AII       0.077200
     65 H18          7.0010     2.4710    -4.0550 hc         1 AII       0.115700
     66 H19          4.6140     3.0580    -4.5350 hc         1 AII       0.098200
     67 H20          2.8120     2.1180    -3.0820 hc         1 AII       0.096700
     68 H21          3.4190     1.3740    -0.8660 hc         1 AII       0.098200
     69 H22          5.7500     1.7730    -0.0080 hc         1 AII       0.094700
     70 H23         11.4380    -1.8710    -1.9150 hc         1 AII       0.106700
     71 H24          9.8450    -2.1920    -1.2560 hc         1 AII       0.106700
     72 H25         11.0890    -3.7310    -3.1600 h1         1 AII       0.073700
     73 H26          8.9020    -4.8450    -3.7630 hc         1 AII       0.073200
     74 H27          8.9230    -5.7320    -2.2230 hc         1 AII       0.073200
     75 H28          8.7160    -2.7810    -2.5940 hc         1 AII       0.073700
     76 H29          8.7200    -3.6600    -0.9830 hc         1 AII       0.073700
     77 H30          4.7960    -4.1290    -0.3750 hc         1 AII       0.115700
     78 H31          3.2280    -2.1900     0.1720 hc         1 AII       0.102700
     79 H32          4.4030    -0.0630     0.3980 hc         1 AII       0.097700
     80 H33          6.5520     0.1240    -0.6840 hc         1 AII       0.102700
     81 H34          7.2340    -1.3240    -2.5250 hc         1 AII       0.098700
     82 H35         10.9930    -5.9110    -4.3820 hc         1 AII       0.096700
     83 H36         11.0240    -6.7970    -2.8340 hc         1 AII       0.096700
     84 H37         12.8270    -7.5660    -4.3410 ho         1 AII       0.469000
@<TRIPOS>BOND
     1     1     2 1   
     2     1    47 1   
     3     2     3 1   
     4     2    13 1   
     5     2    48 1   
     6     3     4 1   
     7     3    49 1   
     8     3    50 1   
     9     4     5 1   
    10     4    51 1   
    11     4    52 1   
    12     5     6 1   
    13     5     6 1   
    14     5     7 1   
    15     7     8 1   
    16     7     8 1   
    17     7    12 1   
    18     8     9 1   
    19     8    53 1   
    20     9    10 1   
    21     9    10 1   
    22     9    54 1   
    23    10    11 1   
    24    10    55 1   
    25    11    12 1   
    26    11    12 1   
    27    11    56 1   
    28    12    57 1   
    29    13    14 1   
    30    13    58 1   
    31    13    59 1   
    32    14    15 1   
    33    14    15 1   
    34    14    16 1   
    35    16    17 1   
    36    17    18 1   
    37    17    28 1   
    38    17    60 1   
    39    18    19 1   
    40    18    61 1   
    41    18    62 1   
    42    19    20 1   
    43    19    63 1   
    44    19    64 1   
    45    20    21 1   
    46    20    21 1   
    47    20    22 1   
    48    22    23 1   
    49    22    23 1   
    50    22    27 1   
    51    23    24 1   
    52    23    65 1   
    53    24    25 1   
    54    24    25 1   
    55    24    66 1   
    56    25    26 1   
    57    25    67 1   
    58    26    27 1   
    59    26    27 1   
    60    26    68 1   
    61    27    69 1   
    62    28    29 1   
    63    28    70 1   
    64    28    71 1   
    65    29    30 1   
    66    29    30 1   
    67    29    31 1   
    68    31    32 1   
    69    32    33 1   
    70    32    43 1   
    71    32    72 1   
    72    33    34 1   
    73    33    73 1   
    74    33    74 1   
    75    34    35 1   
    76    34    75 1   
    77    34    76 1   
    78    35    36 1   
    79    35    36 1   
    80    35    37 1   
    81    37    38 1   
    82    37    38 1   
    83    37    42 1   
    84    38    39 1   
    85    38    77 1   
    86    39    40 1   
    87    39    40 1   
    88    39    78 1   
    89    40    41 1   
    90    40    79 1   
    91    41    42 1   
    92    41    42 1   
    93    41    80 1   
    94    42    81 1   
    95    43    44 1   
    96    43    82 1   
    97    43    83 1   
    98    44    45 1   
    99    44    45 1   
   100    44    46 1   
   101    46    84 1   
@<TRIPOS>SUBSTRUCTURE
     1 AII         1 TEMP              0 ****  ****    0 ROOT
