@<TRIPOS>MOLECULE
ALL
   81    95     1     0     0
SMALL
abcg2


@<TRIPOS>ATOM
      1 O           15.4500     2.4620    -0.8100 oh         1 ALL      -0.661000
      2 C           15.9260     1.9210     0.4280 c3         1 ALL       0.187300
      3 C1          17.4680     1.9050     0.3530 c3         1 ALL      -0.118400
      4 C2          18.0860     0.5990     0.8490 c3         1 ALL       0.146600
      5 O1          19.5070     0.6390     0.7520 os         1 ALL      -0.398000
      6 C3          20.0910    -0.5060     1.2330 c3         1 ALL       0.184000
      7 C4          19.7300    -1.7990     0.8370 c3         1 ALL      -0.161700
      8 C5          20.4200    -2.9040     1.3470 c3         1 ALL      -0.032700
      9 C6          21.4710    -2.7090     2.2410 c3         1 ALL       0.008000
     10 Br          22.4150    -4.1980     2.9230 br         1 ALL      -0.163000
     11 C7          21.8400    -1.4220     2.6290 c3         1 ALL      -0.036700
     12 C8          21.1510    -0.3210     2.1170 c3         1 ALL      -0.116700
     13 C9          15.3010     0.5350     0.6530 c3         1 ALL      -0.173400
     14 C10         13.8030     0.5920     0.7110 c3         1 ALL       0.594000
     15 O2          13.1850     1.6450     0.5770 os         1 ALL      -0.508000
     16 O3          13.1380    -0.5780     0.8330 os         1 ALL      -0.466000
     17 C11         13.7420    -1.8780     1.0650 c3         1 ALL       0.182300
     18 C12         14.1560    -2.4820    -0.3050 c3         1 ALL      -0.098400
     19 C13         13.3560    -3.7330    -0.6920 c3         1 ALL       0.153600
     20 O4          13.6780    -4.1890    -1.9990 os         1 ALL      -0.402000
     21 C14         12.9960    -5.3420    -2.3090 c3         1 ALL       0.191000
     22 C15         11.6100    -5.5000    -2.1790 c3         1 ALL      -0.166700
     23 C16         11.0030    -6.6950    -2.5800 c3         1 ALL      -0.026700
     24 C17         11.7840    -7.7190    -3.1130 c3         1 ALL       0.007000
     25 Br1         10.9680    -9.3270    -3.6800 br         1 ALL      -0.158000
     26 C18         13.1630    -7.5630    -3.2430 c3         1 ALL      -0.031700
     27 C19         13.7660    -6.3710    -2.8430 c3         1 ALL      -0.117700
     28 C20         12.6540    -2.7080     1.7410 c3         1 ALL      -0.151400
     29 C21         12.2600    -2.2610     3.1190 c3         1 ALL       0.603000
     30 O5          12.7230    -1.2640     3.6600 os         1 ALL      -0.524000
     31 O6          11.2900    -3.0110     3.7260 os         1 ALL      -0.452000
     32 C22         10.8310    -4.3010     3.2350 c3         1 ALL       0.180300
     33 C23          9.2900    -4.2630     3.2250 c3         1 ALL      -0.100400
     34 C24          8.7500    -3.3240     2.1310 c3         1 ALL       0.151600
     35 O7           7.3170    -3.3640     2.1550 os         1 ALL      -0.402000
     36 C25          6.7170    -2.5130     1.2610 c3         1 ALL       0.183000
     37 C26          7.0260    -2.4780    -0.1010 c3         1 ALL      -0.163700
     38 C27          6.3330    -1.6120    -0.9560 c3         1 ALL      -0.024700
     39 C28          5.3240    -0.7950    -0.4490 c3         1 ALL       0.009000
     40 Br2          4.3930     0.3780    -1.6040 br         1 ALL      -0.153000
     41 C29          4.9930    -0.8430     0.9030 c3         1 ALL      -0.032700
     42 C30          5.6840    -1.7120     1.7540 c3         1 ALL      -0.116700
     43 C31         11.3850    -5.4250     4.1370 c3         1 ALL      -0.151400
     44 C32         12.9040    -5.4670     4.1570 c3         1 ALL       0.589000
     45 O8          13.6430    -4.6770     3.5840 os         1 ALL      -0.514000
     46 O9          13.4400    -6.4810     4.8580 oh         1 ALL      -0.608000
     47 H           14.4790     2.5630    -0.7180 ho         1 ALL       0.462000
     48 H1          15.6150     2.6110     1.2230 h1         1 ALL       0.048700
     49 H2          17.8120     2.1060    -0.6700 hc         1 ALL       0.073700
     50 H3          17.8660     2.7420     0.9440 hc         1 ALL       0.073700
     51 H4          17.7080    -0.2140     0.2240 h1         1 ALL       0.064200
     52 H5          17.8000     0.4360     1.8960 h1         1 ALL       0.064200
     53 H6          18.9390    -1.9720     0.1140 hc         1 ALL       0.117700
     54 H7          20.1400    -3.9070     1.0340 hc         1 ALL       0.105700
     55 H8          22.6610    -1.2630     3.3200 hc         1 ALL       0.108700
     56 H9          21.4350     0.6850     2.4110 hc         1 ALL       0.114700
     57 H10         15.6580     0.1250     1.6020 hc         1 ALL       0.101700
     58 H11         15.5770    -0.1110    -0.1860 hc         1 ALL       0.101700
     59 H12         14.6120    -1.7950     1.7300 h1         1 ALL       0.080700
     60 H13         14.0490    -1.7360    -1.1010 hc         1 ALL       0.075700
     61 H14         15.2240    -2.7380    -0.2840 hc         1 ALL       0.075700
     62 H15         12.2950    -3.4760    -0.6650 h1         1 ALL       0.051200
     63 H16         13.5740    -4.5420     0.0180 h1         1 ALL       0.051200
     64 H17         10.9770    -4.7030    -1.8020 hc         1 ALL       0.102700
     65 H18          9.9260    -6.8120    -2.4920 hc         1 ALL       0.107700
     66 H19         13.7760    -8.3550    -3.6620 hc         1 ALL       0.109700
     67 H20         14.8400    -6.2400    -2.9440 hc         1 ALL       0.115700
     68 H21         13.0280    -3.7250     1.7980 hc         1 ALL       0.110700
     69 H22         11.7390    -2.6790     1.1410 hc         1 ALL       0.110700
     70 H23         11.1510    -4.4980     2.2090 h1         1 ALL       0.077700
     71 H24          8.8860    -5.2680     3.0560 hc         1 ALL       0.077200
     72 H25          8.9050    -3.9300     4.1980 hc         1 ALL       0.077200
     73 H26          9.1230    -3.6720     1.1620 h1         1 ALL       0.046200
     74 H27          9.0940    -2.2980     2.3080 h1         1 ALL       0.046200
     75 H28          7.7800    -3.1320    -0.5240 hc         1 ALL       0.104700
     76 H29          6.5810    -1.5860    -2.0140 hc         1 ALL       0.113700
     77 H30          4.2030    -0.2130     1.3030 hc         1 ALL       0.110700
     78 H31          5.4200    -1.7550     2.8070 hc         1 ALL       0.114700
     79 H32         11.0270    -6.3870     3.7500 hc         1 ALL       0.097200
     80 H33         11.0310    -5.2940     5.1650 hc         1 ALL       0.097200
     81 H34         12.8220    -7.0700     5.3260 ho         1 ALL       0.470000
@<TRIPOS>BOND
     1     1     2 1   
     2     1    47 1   
     3     2     3 1   
     4     2    13 1   
     5     2    48 1   
     6     3     4 1   
     7     3    49 1   
     8     3    50 1   
     9     4     5 1   
    10     4    51 1   
    11     4    52 1   
    12     5     6 1   
    13     6     7 1   
    14     6     7 1   
    15     6    12 1   
    16     7     8 1   
    17     7    53 1   
    18     8     9 1   
    19     8     9 1   
    20     8    54 1   
    21     9    10 1   
    22     9    11 1   
    23    11    12 1   
    24    11    12 1   
    25    11    55 1   
    26    12    56 1   
    27    13    14 1   
    28    13    57 1   
    29    13    58 1   
    30    14    15 1   
    31    14    15 1   
    32    14    16 1   
    33    16    17 1   
    34    17    18 1   
    35    17    28 1   
    36    17    59 1   
    37    18    19 1   
    38    18    60 1   
    39    18    61 1   
    40    19    20 1   
    41    19    62 1   
    42    19    63 1   
    43    20    21 1   
    44    21    22 1   
    45    21    22 1   
    46    21    27 1   
    47    22    23 1   
    48    22    64 1   
    49    23    24 1   
    50    23    24 1   
    51    23    65 1   
    52    24    25 1   
    53    24    26 1   
    54    26    27 1   
    55    26    27 1   
    56    26    66 1   
    57    27    67 1   
    58    28    29 1   
    59    28    68 1   
    60    28    69 1   
    61    29    30 1   
    62    29    30 1   
    63    29    31 1   
    64    31    32 1   
    65    32    33 1   
    66    32    43 1   
    67    32    70 1   
    68    33    34 1   
    69    33    71 1   
    70    33    72 1   
    71    34    35 1   
    72    34    73 1   
    73    34    74 1   
    74    35    36 1   
    75    36    37 1   
    76    36    37 1   
    77    36    42 1   
    78    37    38 1   
    79    37    75 1   
    80    38    39 1   
    81    38    39 1   
    82    38    76 1   
    83    39    40 1   
    84    39    41 1   
    85    41    42 1   
    86    41    42 1   
    87    41    77 1   
    88    42    78 1   
    89    43    44 1   
    90    43    79 1   
    91    43    80 1   
    92    44    45 1   
    93    44    45 1   
    94    44    46 1   
    95    46    81 1   
@<TRIPOS>SUBSTRUCTURE
     1 ALL         1 TEMP              0 ****  ****    0 ROOT
