@<TRIPOS>MOLECULE
ABC
   66    68     1     0     0
SMALL
abcg2


@<TRIPOS>ATOM
      1 O            6.6880     0.0850     1.1680 oh         1 ABC      -0.669000
      2 C            7.7430    -0.7080     1.7020 c3         1 ABC       0.182300
      3 C1           8.1470    -0.4400     3.5200 c3         1 ABC      -0.085400
      4 C2           9.5460    -0.8660     4.6050 c3         1 ABC      -0.079400
      5 C3           9.5110    -1.1390     6.0650 c3         1 ABC      -0.080400
      6 C4          10.9370    -1.7310     6.4050 c3         1 ABC      -0.093100
      7 C5           8.8740    -0.3910     0.7610 c3         1 ABC      -0.160400
      8 C6           9.2820    -0.2110    -0.7100 c3         1 ABC       0.587000
      9 O1           8.6300    -0.7680    -1.5560 os         1 ABC      -0.517000
     10 O2          10.5340     0.3770    -0.9990 os         1 ABC      -0.449000
     11 C7          11.8230     1.1920    -0.3750 c3         1 ABC       0.187300
     12 C8          12.2480     0.8620     1.1260 c3         1 ABC      -0.118400
     13 C9          11.2250    -0.1420     1.3650 c3         1 ABC      -0.079400
     14 C10         10.7970    -0.9270     2.5520 c3         1 ABC      -0.079400
     15 C11          9.7080    -2.4110     2.5850 c3         1 ABC      -0.093100
     16 C12         11.4530     2.6590    -0.5010 c3         1 ABC      -0.168400
     17 C13         11.4870     3.0640    -1.9630 c3         1 ABC       0.597000
     18 O3          11.7780     2.3120    -2.8490 os         1 ABC      -0.491000
     19 O4          11.1520     4.3620    -2.2270 os         1 ABC      -0.461000
     20 C14         10.7520     5.3020    -1.2110 c3         1 ABC       0.179300
     21 C15          9.2230     5.2920    -1.1940 c3         1 ABC      -0.096400
     22 C16          8.6850     5.9870     0.0460 c3         1 ABC      -0.082400
     23 C17          7.1650     5.9870     0.0550 c3         1 ABC      -0.079400
     24 C18          6.6560     6.6910     1.2980 c3         1 ABC      -0.094100
     25 C19         11.3230     6.6810    -1.5690 c3         1 ABC      -0.149400
     26 C20         12.8280     6.6440    -1.5210 c3         1 ABC       0.591000
     27 O5          13.4900     5.6510    -1.2100 os         1 ABC      -0.517000
     28 O6          13.4200     7.8220    -1.8000 oh         1 ABC      -0.616000
     29 H            6.7150    -0.1330     0.2020 ho         1 ABC       0.460000
     30 H1           7.4090    -1.7320     1.4630 h1         1 ABC       0.047700
     31 H2           8.0910     0.6470     3.6520 hc         1 ABC       0.062700
     32 H3           7.2990    -0.8960     4.0340 hc         1 ABC       0.062700
     33 H4          10.3400    -0.0950     4.6140 hc         1 ABC       0.038700
     34 H5          10.1530    -1.7400     4.3800 hc         1 ABC       0.038700
     35 H6           8.7250    -1.8610     6.2660 hc         1 ABC       0.042200
     36 H7           9.3620    -0.1570     6.5050 hc         1 ABC       0.042200
     37 H8          11.0710    -2.7420     5.9790 hc         1 ABC       0.032700
     38 H9          11.1090    -1.7820     7.4760 hc         1 ABC       0.032700
     39 H10         11.7590    -1.1480     5.9510 hc         1 ABC       0.032700
     40 H11          9.4670    -1.2900     0.8530 hc         1 ABC       0.094200
     41 H12          8.9830     0.5770     1.2220 hc         1 ABC       0.094200
     42 H13         12.6760     0.9050    -1.0040 h1         1 ABC       0.105700
     43 H14         13.1970     0.3660     1.2990 hc         1 ABC       0.061200
     44 H15         12.1620     1.7430     1.7950 hc         1 ABC       0.061200
     45 H16         11.3560    -0.8740     0.5870 hc         1 ABC       0.049200
     46 H17         10.5330     0.7080     1.2630 hc         1 ABC       0.049200
     47 H18         10.3510    -0.0070     2.9810 hc         1 ABC       0.039200
     48 H19         11.7030    -1.2100     3.0580 hc         1 ABC       0.039200
     49 H20          8.6310    -2.3240     2.4770 hc         1 ABC       0.035367
     50 H21          9.4650    -2.9200     3.5490 hc         1 ABC       0.035367
     51 H22         10.0030    -3.1770     1.8990 hc         1 ABC       0.035367
     52 H23         12.1800     3.2570     0.0560 hc         1 ABC       0.101200
     53 H24         10.4460     2.8070    -0.0970 hc         1 ABC       0.101200
     54 H25         11.1330     5.0250    -0.2230 h1         1 ABC       0.076700
     55 H26          8.8390     5.7680    -2.1060 hc         1 ABC       0.063200
     56 H27          8.8530     4.2590    -1.2260 hc         1 ABC       0.063200
     57 H28          9.0440     7.0200     0.0870 hc         1 ABC       0.042200
     58 H29          9.0630     5.4770     0.9410 hc         1 ABC       0.042200
     59 H30          6.7880     4.9580     0.0310 hc         1 ABC       0.042700
     60 H31          6.7880     6.4970    -0.8380 hc         1 ABC       0.042700
     61 H32          7.0100     6.1840     2.2020 hc         1 ABC       0.036700
     62 H33          5.5630     6.6990     1.3100 hc         1 ABC       0.036700
     63 H34          7.0100     7.7270     1.3280 hc         1 ABC       0.036700
     64 H35         10.9880     7.4250    -0.8390 hc         1 ABC       0.094200
     65 H36         10.9970     6.9780    -2.5710 hc         1 ABC       0.094200
     66 H37         12.8230     8.5630    -2.0160 ho         1 ABC       0.468000
@<TRIPOS>BOND
     1     1     2 1   
     2     1    29 1   
     3     2     3 1   
     4     2     7 1   
     5     2    30 1   
     6     3     4 1   
     7     3    31 1   
     8     3    32 1   
     9     4     5 1   
    10     4    33 1   
    11     4    34 1   
    12     5     6 1   
    13     5    35 1   
    14     5    36 1   
    15     6    37 1   
    16     6    38 1   
    17     6    39 1   
    18     7     8 1   
    19     7    40 1   
    20     7    41 1   
    21     8     9 1   
    22     8     9 1   
    23     8    10 1   
    24    10    11 1   
    25    11    12 1   
    26    11    16 1   
    27    11    42 1   
    28    12    13 1   
    29    12    43 1   
    30    12    44 1   
    31    13    14 1   
    32    13    45 1   
    33    13    46 1   
    34    14    15 1   
    35    14    47 1   
    36    14    48 1   
    37    15    49 1   
    38    15    50 1   
    39    15    51 1   
    40    16    17 1   
    41    16    52 1   
    42    16    53 1   
    43    17    18 1   
    44    17    18 1   
    45    17    19 1   
    46    19    20 1   
    47    20    21 1   
    48    20    25 1   
    49    20    54 1   
    50    21    22 1   
    51    21    55 1   
    52    21    56 1   
    53    22    23 1   
    54    22    57 1   
    55    22    58 1   
    56    23    24 1   
    57    23    59 1   
    58    23    60 1   
    59    24    61 1   
    60    24    62 1   
    61    24    63 1   
    62    25    26 1   
    63    25    64 1   
    64    25    65 1   
    65    26    27 1   
    66    26    27 1   
    67    26    28 1   
    68    28    66 1   
@<TRIPOS>SUBSTRUCTURE
     1 ABC         1 TEMP              0 ****  ****    0 ROOT
