@<TRIPOS>MOLECULE
AFO
   90   104     1     0     0
SMALL
abcg2


@<TRIPOS>ATOM
      1 O            8.7600     3.2300     2.2300 oh         1 AFO      -0.665000
      2 C           10.0820     2.7580     2.5030 c3         1 AFO       0.186300
      3 C1          11.0670     3.8450     2.0290 c3         1 AFO      -0.087400
      4 C2          12.4440     3.2960     1.6460 c3         1 AFO       0.146600
      5 O1          13.3170     4.3570     1.2740 os         1 AFO      -0.405000
      6 C3          14.5560     3.9400     0.8560 c3         1 AFO       0.180000
      7 C4          14.7930     2.8640    -0.0080 c3         1 AFO      -0.163700
      8 C5          16.0980     2.5610    -0.4280 c3         1 AFO      -0.036000
      9 C6          16.3650     1.4050    -1.3480 c3         1 AFO      -0.063100
     10 C7          17.1600     3.3580     0.0170 c3         1 AFO      -0.127700
     11 C8          16.9230     4.4330     0.8720 c3         1 AFO      -0.058700
     12 C9          15.6230     4.7230     1.2870 c3         1 AFO      -0.121700
     13 C10         10.3000     1.4360     1.7780 c3         1 AFO      -0.171400
     14 C11          9.3380     0.3520     2.1850 c3         1 AFO       0.596000
     15 O2           8.4730     0.5340     3.0370 os         1 AFO      -0.511000
     16 O3           9.4410    -0.8330     1.5240 os         1 AFO      -0.456000
     17 C12         10.4060    -1.0360     0.4600 c3         1 AFO       0.185300
     18 C13          9.8750    -0.3270    -0.7980 c3         1 AFO      -0.102400
     19 C14         11.0110     0.3660    -1.5440 c3         1 AFO       0.145600
     20 O4          10.4450     1.0890    -2.6340 os         1 AFO      -0.405000
     21 C15         11.3520     1.7740    -3.3950 c3         1 AFO       0.176000
     22 C16         12.5780     1.2460    -3.8060 c3         1 AFO      -0.161700
     23 C17         13.4170     1.9770    -4.6580 c3         1 AFO      -0.035000
     24 C18         14.7350     1.4140    -5.0980 c3         1 AFO      -0.064100
     25 C19         13.0100     3.2400    -5.1020 c3         1 AFO      -0.124700
     26 C20         11.7850     3.7680    -4.6940 c3         1 AFO      -0.058700
     27 C21         10.9570     3.0330    -3.8440 c3         1 AFO      -0.120700
     28 C22         10.5430    -2.5370     0.1910 c3         1 AFO      -0.152400
     29 C23         11.0580    -3.2910     1.4040 c3         1 AFO       0.601000
     30 O5          11.4250    -2.7180     2.4260 os         1 AFO      -0.514000
     31 O6          11.1180    -4.6500     1.3240 os         1 AFO      -0.455000
     32 C24         10.7360    -5.3950     0.1430 c3         1 AFO       0.182300
     33 C25          9.2050    -5.4700     0.1200 c3         1 AFO      -0.104400
     34 C26          8.6840    -5.8210    -1.2650 c3         1 AFO       0.152600
     35 O7           7.2610    -5.7560    -1.2250 os         1 AFO      -0.403000
     36 C27          6.6400    -6.1080    -2.3920 c3         1 AFO       0.172000
     37 C28          7.0050    -7.2070    -3.1710 c3         1 AFO      -0.165700
     38 C29          6.2690    -7.5430    -4.3160 c3         1 AFO      -0.033000
     39 C30          6.6630    -8.7190    -5.1600 c3         1 AFO      -0.065100
     40 C31          5.1550    -6.7710    -4.6640 c3         1 AFO      -0.120700
     41 C32          4.7860    -5.6770    -3.8820 c3         1 AFO      -0.055700
     42 C33          5.5250    -5.3490    -2.7460 c3         1 AFO      -0.117700
     43 C34         11.3460    -6.8140     0.2110 c3         1 AFO      -0.152400
     44 C35         12.8540    -6.7700     0.1720 c3         1 AFO       0.591000
     45 O8          13.5150    -5.7420     0.0780 os         1 AFO      -0.520000
     46 O9          13.4400    -7.9870     0.1910 oh         1 AFO      -0.613000
     47 H            8.1390     2.5510     2.5680 ho         1 AFO       0.464000
     48 H1          10.1750     2.6160     3.5840 h1         1 AFO       0.048700
     49 H2          10.6490     4.3960     1.1750 hc         1 AFO       0.074200
     50 H3          11.1700     4.6010     2.8180 hc         1 AFO       0.074200
     51 H4          12.3130     2.6230     0.7950 h1         1 AFO       0.046700
     52 H5          12.8710     2.7470     2.4930 h1         1 AFO       0.046700
     53 H6          13.9750     2.2660    -0.3960 hc         1 AFO       0.102700
     54 H7          15.4390     0.8890    -1.6220 hc         1 AFO       0.045033
     55 H8          17.0210     0.6790    -0.8560 hc         1 AFO       0.045033
     56 H9          16.8410     1.7520    -2.2710 hc         1 AFO       0.045033
     57 H10         18.1780     3.1490    -0.3060 hc         1 AFO       0.091700
     58 H11         17.7480     5.0520     1.2130 hc         1 AFO       0.092700
     59 H12         15.4390     5.5620     1.9520 hc         1 AFO       0.108700
     60 H13         11.3090     1.0640     1.9780 hc         1 AFO       0.101200
     61 H14         10.1610     1.6550     0.7200 hc         1 AFO       0.101200
     62 H15         11.3870    -0.6600     0.7720 h1         1 AFO       0.074700
     63 H16          9.3700    -1.0310    -1.4720 hc         1 AFO       0.076700
     64 H17          9.0870     0.3970    -0.5550 hc         1 AFO       0.076700
     65 H18         11.7220    -0.3960    -1.8740 h1         1 AFO       0.050200
     66 H19         11.5280     1.0700    -0.8810 h1         1 AFO       0.050200
     67 H20         12.8840     0.2510    -3.5030 hc         1 AFO       0.104700
     68 H21         14.9000     0.4140    -4.6830 hc         1 AFO       0.046367
     69 H22         15.5510     2.0580    -4.7540 hc         1 AFO       0.046367
     70 H23         14.7710     1.3330    -6.1890 hc         1 AFO       0.046367
     71 H24         13.6440     3.8180    -5.7720 hc         1 AFO       0.092700
     72 H25         11.4730     4.7480    -5.0430 hc         1 AFO       0.093700
     73 H26         10.0020     3.4480    -3.5320 hc         1 AFO       0.107700
     74 H27         11.2330    -2.6930    -0.6440 hc         1 AFO       0.110700
     75 H28          9.5510    -2.8900    -0.0840 hc         1 AFO       0.110700
     76 H29         11.1330    -4.8890    -0.7460 h1         1 AFO       0.074700
     77 H30          8.8470    -6.1870     0.8690 hc         1 AFO       0.080700
     78 H31          8.7380    -4.5400     0.4540 hc         1 AFO       0.080700
     79 H32          9.0370    -6.8210    -1.5240 h1         1 AFO       0.040200
     80 H33          9.0590    -5.0960    -1.9990 h1         1 AFO       0.040200
     81 H34          7.8400    -7.8380    -2.8880 hc         1 AFO       0.094700
     82 H35          7.5400    -9.2300    -4.7470 hc         1 AFO       0.047033
     83 H36          6.9160    -8.3850    -6.1710 hc         1 AFO       0.047033
     84 H37          5.8460    -9.4450    -5.2100 hc         1 AFO       0.047033
     85 H38          4.5650    -7.0230    -5.5430 hc         1 AFO       0.096700
     86 H39          3.9170    -5.0840    -4.1540 hc         1 AFO       0.096700
     87 H40          5.2310    -4.4990    -2.1370 hc         1 AFO       0.110700
     88 H41         11.0180    -7.3970    -0.6570 hc         1 AFO       0.097200
     89 H42         11.0290    -7.3230     1.1270 hc         1 AFO       0.097200
     90 H43         12.8460    -8.7600     0.2480 ho         1 AFO       0.471000
@<TRIPOS>BOND
     1     1     2 1   
     2     1    47 1   
     3     2     3 1   
     4     2    13 1   
     5     2    48 1   
     6     3     4 1   
     7     3    49 1   
     8     3    50 1   
     9     4     5 1   
    10     4    51 1   
    11     4    52 1   
    12     5     6 1   
    13     6     7 1   
    14     6     7 1   
    15     6    12 1   
    16     7     8 1   
    17     7    53 1   
    18     8     9 1   
    19     8    10 1   
    20     8    10 1   
    21     9    54 1   
    22     9    55 1   
    23     9    56 1   
    24    10    11 1   
    25    10    57 1   
    26    11    12 1   
    27    11    12 1   
    28    11    58 1   
    29    12    59 1   
    30    13    14 1   
    31    13    60 1   
    32    13    61 1   
    33    14    15 1   
    34    14    15 1   
    35    14    16 1   
    36    16    17 1   
    37    17    18 1   
    38    17    28 1   
    39    17    62 1   
    40    18    19 1   
    41    18    63 1   
    42    18    64 1   
    43    19    20 1   
    44    19    65 1   
    45    19    66 1   
    46    20    21 1   
    47    21    22 1   
    48    21    22 1   
    49    21    27 1   
    50    22    23 1   
    51    22    67 1   
    52    23    24 1   
    53    23    25 1   
    54    23    25 1   
    55    24    68 1   
    56    24    69 1   
    57    24    70 1   
    58    25    26 1   
    59    25    71 1   
    60    26    27 1   
    61    26    27 1   
    62    26    72 1   
    63    27    73 1   
    64    28    29 1   
    65    28    74 1   
    66    28    75 1   
    67    29    30 1   
    68    29    30 1   
    69    29    31 1   
    70    31    32 1   
    71    32    33 1   
    72    32    43 1   
    73    32    76 1   
    74    33    34 1   
    75    33    77 1   
    76    33    78 1   
    77    34    35 1   
    78    34    79 1   
    79    34    80 1   
    80    35    36 1   
    81    36    37 1   
    82    36    37 1   
    83    36    42 1   
    84    37    38 1   
    85    37    81 1   
    86    38    39 1   
    87    38    40 1   
    88    38    40 1   
    89    39    82 1   
    90    39    83 1   
    91    39    84 1   
    92    40    41 1   
    93    40    85 1   
    94    41    42 1   
    95    41    42 1   
    96    41    86 1   
    97    42    87 1   
    98    43    44 1   
    99    43    88 1   
   100    43    89 1   
   101    44    45 1   
   102    44    45 1   
   103    44    46 1   
   104    46    90 1   
@<TRIPOS>SUBSTRUCTURE
     1 AFO         1 TEMP              0 ****  ****    0 ROOT
