@<TRIPOS>MOLECULE
AJW
   75    77     1     0     0
SMALL
abcg2


@<TRIPOS>ATOM
      1 O           16.7000     1.7840     0.8750 oh         1 AJW      -0.668000
      2 C           16.3590     1.2010     2.1320 c3         1 AJW       0.182300
      3 C1          17.6740     0.8790     2.8550 c3         1 AJW      -0.075400
      4 C2          18.0950    -0.5770     2.6280 c3         1 AJW      -0.076400
      5 C3          19.3930    -0.9920     3.2900 c3         1 AJW      -0.067700
      6 C4          19.3020    -0.8020     4.8000 c3         1 AJW      -0.090600
      7 C5          19.6320    -2.4660     2.9550 c3         1 AJW      -0.090600
      8 C6          15.5140    -0.0460     1.8970 c3         1 AJW      -0.166400
      9 C7          14.2360     0.2380     1.1780 c3         1 AJW       0.595000
     10 O1          13.9170     1.3680     0.8210 os         1 AJW      -0.519000
     11 O2          13.4920    -0.8400     0.8310 os         1 AJW      -0.457000
     12 C8          13.8330    -2.1730     1.2530 c3         1 AJW       0.178300
     13 C9          14.1130    -2.9980    -0.0130 c3         1 AJW      -0.089400
     14 C10         12.8880    -3.8130    -0.4380 c3         1 AJW      -0.078400
     15 C11         13.0630    -4.6460    -1.6890 c3         1 AJW      -0.066700
     16 C12         14.1970    -5.6470    -1.5030 c3         1 AJW      -0.091100
     17 C13         11.7430    -5.3770    -1.9420 c3         1 AJW      -0.091100
     18 C14         12.6570    -2.7170     2.0260 c3         1 AJW      -0.144400
     19 C15         12.3640    -2.0150     3.3180 c3         1 AJW       0.599000
     20 O3          12.9340    -0.9970     3.6880 os         1 AJW      -0.516000
     21 O4          11.3500    -2.5680     4.0440 os         1 AJW      -0.457000
     22 C16         10.8710    -3.9070     3.7690 c3         1 AJW       0.178300
     23 C17          9.3410    -3.8470     3.7700 c3         1 AJW      -0.097400
     24 C18          8.7880    -4.2960     2.4090 c3         1 AJW      -0.078400
     25 C19          7.2560    -4.2840     2.3720 c3         1 AJW      -0.065700
     26 C20          6.7090    -2.8810     2.6310 c3         1 AJW      -0.092600
     27 C21          6.7630    -4.7870     1.0170 c3         1 AJW      -0.092600
     28 C22         11.4350    -4.8780     4.8100 c3         1 AJW      -0.148400
     29 C23         12.9540    -4.9120     4.8330 c3         1 AJW       0.587000
     30 O5          13.7030    -4.2070     4.1650 os         1 AJW      -0.510000
     31 O6          13.4810    -5.8240     5.6670 oh         1 AJW      -0.616000
     32 H           15.8500     2.0480     0.4660 ho         1 AJW       0.460000
     33 H1          15.8010     1.9440     2.7140 h1         1 AJW       0.046700
     34 H2          18.4770     1.5460     2.5160 hc         1 AJW       0.053200
     35 H3          17.5270     1.0640     3.9240 hc         1 AJW       0.053200
     36 H4          18.1730    -0.7600     1.5490 hc         1 AJW       0.047200
     37 H5          17.3190    -1.2450     3.0240 hc         1 AJW       0.047200
     38 H6          20.2100    -0.3870     2.8830 hc         1 AJW       0.048700
     39 H7          18.4710    -1.3840     5.2170 hc         1 AJW       0.033033
     40 H8          19.1360     0.2480     5.0620 hc         1 AJW       0.033033
     41 H9          20.2280    -1.1180     5.2840 hc         1 AJW       0.033033
     42 H10         18.8210    -3.0950     3.3440 hc         1 AJW       0.033033
     43 H11         20.5730    -2.8130     3.3880 hc         1 AJW       0.033033
     44 H12         19.6720    -2.6200     1.8710 hc         1 AJW       0.033033
     45 H13         15.3000    -0.5120     2.8650 hc         1 AJW       0.100200
     46 H14         16.0600    -0.7310     1.2360 hc         1 AJW       0.100200
     47 H15         14.7190    -2.2370     1.8900 h1         1 AJW       0.073700
     48 H16         14.4270    -2.3460    -0.8370 hc         1 AJW       0.055700
     49 H17         14.9520    -3.6700     0.2030 hc         1 AJW       0.055700
     50 H18         12.0400    -3.1320    -0.5810 hc         1 AJW       0.051200
     51 H19         12.6180    -4.5180     0.3600 hc         1 AJW       0.051200
     52 H20         13.2800    -3.9780    -2.5290 hc         1 AJW       0.047700
     53 H21         14.0000    -6.3060    -0.6480 hc         1 AJW       0.034533
     54 H22         15.1500    -5.1430    -1.3200 hc         1 AJW       0.034533
     55 H23         14.3160    -6.2610    -2.3970 hc         1 AJW       0.034533
     56 H24         11.4960    -6.0470    -1.1080 hc         1 AJW       0.034533
     57 H25         11.8020    -5.9730    -2.8540 hc         1 AJW       0.034533
     58 H26         10.9140    -4.6670    -2.0440 hc         1 AJW       0.034533
     59 H27         12.9110    -3.7610     2.2130 hc         1 AJW       0.109200
     60 H28         11.7340    -2.6510     1.4420 hc         1 AJW       0.109200
     61 H29         11.1620    -4.2690     2.7840 h1         1 AJW       0.077700
     62 H30          8.9190    -4.4900     4.5500 hc         1 AJW       0.064200
     63 H31          9.0190    -2.8220     3.9790 hc         1 AJW       0.064200
     64 H32          9.1490    -5.3100     2.1890 hc         1 AJW       0.041700
     65 H33          9.1810    -3.6460     1.6150 hc         1 AJW       0.041700
     66 H34          6.8820    -4.9620     3.1500 hc         1 AJW       0.047700
     67 H35          7.0830    -2.1760     1.8810 hc         1 AJW       0.036867
     68 H36          6.9980    -2.5090     3.6180 hc         1 AJW       0.036867
     69 H37          5.6160    -2.8770     2.6010 hc         1 AJW       0.036867
     70 H38          7.1130    -4.1390     0.2060 hc         1 AJW       0.036867
     71 H39          5.6680    -4.8040     0.9890 hc         1 AJW       0.036867
     72 H40          7.1220    -5.8020     0.8180 hc         1 AJW       0.036867
     73 H41         11.0730    -5.8820     4.5570 hc         1 AJW       0.093700
     74 H42         11.0800    -4.6000     5.8060 hc         1 AJW       0.093700
     75 H43         12.8450    -6.3310     6.2000 ho         1 AJW       0.467000
@<TRIPOS>BOND
     1     1     2 1   
     2     1    32 1   
     3     2     3 1   
     4     2     8 1   
     5     2    33 1   
     6     3     4 1   
     7     3    34 1   
     8     3    35 1   
     9     4     5 1   
    10     4    36 1   
    11     4    37 1   
    12     5     6 1   
    13     5     7 1   
    14     5    38 1   
    15     6    39 1   
    16     6    40 1   
    17     6    41 1   
    18     7    42 1   
    19     7    43 1   
    20     7    44 1   
    21     8     9 1   
    22     8    45 1   
    23     8    46 1   
    24     9    10 1   
    25     9    10 1   
    26     9    11 1   
    27    11    12 1   
    28    12    13 1   
    29    12    18 1   
    30    12    47 1   
    31    13    14 1   
    32    13    48 1   
    33    13    49 1   
    34    14    15 1   
    35    14    50 1   
    36    14    51 1   
    37    15    16 1   
    38    15    17 1   
    39    15    52 1   
    40    16    53 1   
    41    16    54 1   
    42    16    55 1   
    43    17    56 1   
    44    17    57 1   
    45    17    58 1   
    46    18    19 1   
    47    18    59 1   
    48    18    60 1   
    49    19    20 1   
    50    19    20 1   
    51    19    21 1   
    52    21    22 1   
    53    22    23 1   
    54    22    28 1   
    55    22    61 1   
    56    23    24 1   
    57    23    62 1   
    58    23    63 1   
    59    24    25 1   
    60    24    64 1   
    61    24    65 1   
    62    25    26 1   
    63    25    27 1   
    64    25    66 1   
    65    26    67 1   
    66    26    68 1   
    67    26    69 1   
    68    27    70 1   
    69    27    71 1   
    70    27    72 1   
    71    28    29 1   
    72    28    73 1   
    73    28    74 1   
    74    29    30 1   
    75    29    30 1   
    76    29    31 1   
    77    31    75 1   
@<TRIPOS>SUBSTRUCTURE
     1 AJW         1 TEMP              0 ****  ****    0 ROOT
