@<TRIPOS>MOLECULE
AKA
   84    86     1     0     0
SMALL
abcg2


@<TRIPOS>ATOM
      1 O           14.0250     1.5510    -3.3210 oh         1 AKA      -0.668000
      2 C           14.3570     2.4080    -2.2250 c3         1 AKA       0.181300
      3 C1          15.8710     2.6410    -2.2150 c3         1 AKA      -0.076400
      4 C2          16.3770     2.9030    -3.6230 c3         1 AKA      -0.078400
      5 C3          17.8750     3.1580    -3.6490 c3         1 AKA      -0.075400
      6 C4          18.3650     3.4100    -5.0810 c3         1 AKA      -0.067700
      7 C5          17.6730     4.6250    -5.7010 c3         1 AKA      -0.089600
      8 C6          19.8750     3.6210    -5.0760 c3         1 AKA      -0.089600
      9 C7          13.9240     1.7410    -0.9300 c3         1 AKA      -0.166400
     10 C8          12.4300     1.5070    -0.9290 c3         1 AKA       0.597000
     11 O1          11.7190     1.8120    -1.8850 os         1 AKA      -0.519000
     12 O2          11.8890     0.8660     0.1390 os         1 AKA      -0.456000
     13 C9          12.6760     0.4120     1.2630 c3         1 AKA       0.178300
     14 C10         12.7540    -1.1200     1.2360 c3         1 AKA      -0.095400
     15 C11         12.9450    -1.6350    -0.1790 c3         1 AKA      -0.082400
     16 C12         13.0810    -3.1440    -0.2350 c3         1 AKA      -0.074400
     17 C13         13.2770    -3.6150    -1.6830 c3         1 AKA      -0.068700
     18 C14         14.5340    -3.0060    -2.3120 c3         1 AKA      -0.090100
     19 C15         13.3700    -5.1350    -1.7080 c3         1 AKA      -0.090100
     20 C16         11.9970     0.8770     2.5430 c3         1 AKA      -0.145400
     21 C17         11.9270     2.3830     2.5910 c3         1 AKA       0.599000
     22 O3          12.3340     3.1070     1.6860 os         1 AKA      -0.515000
     23 O4          11.3650     2.9350     3.6920 os         1 AKA      -0.454000
     24 C18         10.8530     2.1860     4.8210 c3         1 AKA       0.177300
     25 C19          9.3150     2.2130     4.8040 c3         1 AKA      -0.090400
     26 C20          8.7670     3.2160     3.8020 c3         1 AKA      -0.080400
     27 C21          7.2490     3.2280     3.7650 c3         1 AKA      -0.075400
     28 C22          6.7360     4.2300     2.7210 c3         1 AKA      -0.065700
     29 C23          7.2300     3.8870     1.3130 c3         1 AKA      -0.091600
     30 C24          5.2120     4.2450     2.7420 c3         1 AKA      -0.091600
     31 C25         11.4070     2.8340     6.0930 c3         1 AKA      -0.148400
     32 C26         12.9170     2.7830     6.0760 c3         1 AKA       0.587000
     33 O5          13.5900     2.2780     5.1820 os         1 AKA      -0.511000
     34 O6          13.4960     3.3120     7.1730 oh         1 AKA      -0.615000
     35 H           13.0460     1.5370    -3.3690 ho         1 AKA       0.461000
     36 H1          13.8420     3.3660    -2.3680 h1         1 AKA       0.049700
     37 H2          16.1080     3.4910    -1.5620 hc         1 AKA       0.051200
     38 H3          16.3970     1.7680    -1.8100 hc         1 AKA       0.051200
     39 H4          15.8230     3.7610    -4.0160 hc         1 AKA       0.048700
     40 H5          16.1640     2.0470    -4.2740 hc         1 AKA       0.048700
     41 H6          18.3970     2.2870    -3.2290 hc         1 AKA       0.039700
     42 H7          18.1170     4.0140    -3.0080 hc         1 AKA       0.039700
     43 H8          18.1390     2.5270    -5.6940 hc         1 AKA       0.048700
     44 H9          17.8510     5.5200    -5.0950 hc         1 AKA       0.032867
     45 H10         16.5910     4.4830    -5.7820 hc         1 AKA       0.032867
     46 H11         18.0390     4.8100    -6.7140 hc         1 AKA       0.032867
     47 H12         20.1430     4.4920    -4.4690 hc         1 AKA       0.032867
     48 H13         20.2440     3.7860    -6.0930 hc         1 AKA       0.032867
     49 H14         20.3900     2.7470    -4.6640 hc         1 AKA       0.032867
     50 H15         14.2110     2.3730    -0.0860 hc         1 AKA       0.098200
     51 H16         14.4370     0.7780    -0.8690 hc         1 AKA       0.098200
     52 H17         13.6920     0.8130     1.2450 h1         1 AKA       0.075700
     53 H18         13.5880    -1.4440     1.8700 hc         1 AKA       0.062200
     54 H19         11.8430    -1.5650     1.6500 hc         1 AKA       0.062200
     55 H20         13.8470    -1.1730    -0.5780 hc         1 AKA       0.044200
     56 H21         12.1020    -1.3400    -0.8170 hc         1 AKA       0.044200
     57 H22         12.1800    -3.6030     0.1890 hc         1 AKA       0.042700
     58 H23         13.9290    -3.4590     0.3850 hc         1 AKA       0.042700
     59 H24         12.4060    -3.3080    -2.2780 hc         1 AKA       0.049700
     60 H25         15.4220    -3.2620    -1.7250 hc         1 AKA       0.033533
     61 H26         14.4750    -1.9150    -2.3760 hc         1 AKA       0.033533
     62 H27         14.6740    -3.3680    -3.3340 hc         1 AKA       0.033533
     63 H28         14.2270    -5.4800    -1.1200 hc         1 AKA       0.033533
     64 H29         13.4900    -5.4970    -2.7340 hc         1 AKA       0.033533
     65 H30         12.4650    -5.5870    -1.2900 hc         1 AKA       0.033533
     66 H31         12.5930     0.5160     3.3860 hc         1 AKA       0.108700
     67 H32         10.9790     0.4740     2.5900 hc         1 AKA       0.108700
     68 H33         11.1780     1.1430     4.8050 h1         1 AKA       0.074700
     69 H34          8.9530     1.2140     4.5260 hc         1 AKA       0.056200
     70 H35          8.9120     2.4120     5.8030 hc         1 AKA       0.056200
     71 H36          9.1420     2.9330     2.8150 hc         1 AKA       0.049200
     72 H37          9.1390     4.2230     4.0280 hc         1 AKA       0.049200
     73 H38          6.8650     3.4900     4.7580 hc         1 AKA       0.041700
     74 H39          6.8790     2.2210     3.5330 hc         1 AKA       0.041700
     75 H40          7.0990     5.2320     2.9850 hc         1 AKA       0.042700
     76 H41          6.9140     2.8790     1.0260 hc         1 AKA       0.035367
     77 H42          8.3210     3.9310     1.2380 hc         1 AKA       0.035367
     78 H43          6.8420     4.5980     0.5790 hc         1 AKA       0.035367
     79 H44          4.8100     3.2590     2.4850 hc         1 AKA       0.035367
     80 H45          4.8240     4.9720     2.0210 hc         1 AKA       0.035367
     81 H46          4.8380     4.5170     3.7340 hc         1 AKA       0.035367
     82 H47         11.0480     2.2760     6.9640 hc         1 AKA       0.093700
     83 H48         11.0800     3.8780     6.1640 hc         1 AKA       0.093700
     84 H49         12.8870     3.6740     7.8430 ho         1 AKA       0.468000
@<TRIPOS>BOND
     1     1     2 1   
     2     1    35 1   
     3     2     3 1   
     4     2     9 1   
     5     2    36 1   
     6     3     4 1   
     7     3    37 1   
     8     3    38 1   
     9     4     5 1   
    10     4    39 1   
    11     4    40 1   
    12     5     6 1   
    13     5    41 1   
    14     5    42 1   
    15     6     7 1   
    16     6     8 1   
    17     6    43 1   
    18     7    44 1   
    19     7    45 1   
    20     7    46 1   
    21     8    47 1   
    22     8    48 1   
    23     8    49 1   
    24     9    10 1   
    25     9    50 1   
    26     9    51 1   
    27    10    11 1   
    28    10    11 1   
    29    10    12 1   
    30    12    13 1   
    31    13    14 1   
    32    13    20 1   
    33    13    52 1   
    34    14    15 1   
    35    14    53 1   
    36    14    54 1   
    37    15    16 1   
    38    15    55 1   
    39    15    56 1   
    40    16    17 1   
    41    16    57 1   
    42    16    58 1   
    43    17    18 1   
    44    17    19 1   
    45    17    59 1   
    46    18    60 1   
    47    18    61 1   
    48    18    62 1   
    49    19    63 1   
    50    19    64 1   
    51    19    65 1   
    52    20    21 1   
    53    20    66 1   
    54    20    67 1   
    55    21    22 1   
    56    21    22 1   
    57    21    23 1   
    58    23    24 1   
    59    24    25 1   
    60    24    31 1   
    61    24    68 1   
    62    25    26 1   
    63    25    69 1   
    64    25    70 1   
    65    26    27 1   
    66    26    71 1   
    67    26    72 1   
    68    27    28 1   
    69    27    73 1   
    70    27    74 1   
    71    28    29 1   
    72    28    30 1   
    73    28    75 1   
    74    29    76 1   
    75    29    77 1   
    76    29    78 1   
    77    30    79 1   
    78    30    80 1   
    79    30    81 1   
    80    31    32 1   
    81    31    82 1   
    82    31    83 1   
    83    32    33 1   
    84    32    33 1   
    85    32    34 1   
    86    34    84 1   
@<TRIPOS>SUBSTRUCTURE
     1 AKA         1 TEMP              0 ****  ****    0 ROOT
