@<TRIPOS>MOLECULE
ABS
  102   104     1     0     0
SMALL
abcg2


@<TRIPOS>ATOM
      1 O            7.5510     1.5010     3.5670 oh         1 ABS      -0.667000
      2 C            8.9810     1.4610     3.5210 c3         1 ABS       0.182300
      3 C1           9.4670     2.9060     3.3150 c3         1 ABS      -0.075400
      4 C2           9.7810     3.2300     1.8540 c3         1 ABS      -0.079400
      5 C3          10.2660     4.6470     1.6710 c3         1 ABS      -0.078400
      6 C4          10.5900     4.8660     0.2010 c3         1 ABS      -0.078400
      7 C5          11.0750     6.2870    -0.0000 c3         1 ABS      -0.079400
      8 C6          11.3990     6.5290    -1.4630 c3         1 ABS      -0.079400
      9 C7          11.8820     7.9580    -1.6610 c3         1 ABS      -0.080400
     10 C8          12.2050     8.2070    -3.1200 c3         1 ABS      -0.092100
     11 C9           9.4080     0.5390     2.3860 c3         1 ABS      -0.166400
     12 C10          8.9240    -0.8690     2.5400 c3         1 ABS       0.594000
     13 O1           8.2520    -1.2260     3.5030 os         1 ABS      -0.516000
     14 O2           9.1820    -1.7120     1.5100 os         1 ABS      -0.460000
     15 C11          9.9520    -1.3460     0.3280 c3         1 ABS       0.177300
     16 C12          9.1200    -0.3440    -0.5000 c3         1 ABS      -0.096400
     17 C13          9.0410    -0.6420    -1.9800 c3         1 ABS      -0.082400
     18 C14          8.2220     0.4020    -2.6960 c3         1 ABS      -0.078400
     19 C15          8.1770     0.0260    -4.1630 c3         1 ABS      -0.079400
     20 C16          7.3690     1.0550    -4.9190 c3         1 ABS      -0.078400
     21 C17          7.3220     0.6910    -6.3900 c3         1 ABS      -0.079400
     22 C18          6.5110     1.7250    -7.1530 c3         1 ABS      -0.080400
     23 C19          6.4610     1.3690    -8.6240 c3         1 ABS      -0.093100
     24 C20         10.2070    -2.6290    -0.4590 c3         1 ABS      -0.139400
     25 C21         11.0170    -3.6630     0.2630 c3         1 ABS       0.597000
     26 O3          11.4700    -3.4810     1.3880 os         1 ABS      -0.513000
     27 O4          11.2230    -4.8380    -0.3940 os         1 ABS      -0.453000
     28 C22         10.8160    -5.1180    -1.7660 c3         1 ABS       0.174300
     29 C23          9.2810    -5.1700    -1.8110 c3         1 ABS      -0.109400
     30 C24          8.7140    -6.2710    -2.6700 c3         1 ABS      -0.079400
     31 C25          7.2060    -6.2410    -2.6470 c3         1 ABS      -0.080400
     32 C26          6.7110    -7.3860    -3.5060 c3         1 ABS      -0.078400
     33 C27          5.2000    -7.3950    -3.5090 c3         1 ABS      -0.079400
     34 C28          4.6970    -8.5370    -4.3700 c3         1 ABS      -0.079400
     35 C29          3.1770    -8.5490    -4.3790 c3         1 ABS      -0.080400
     36 C30          2.6680    -9.6870    -5.2380 c3         1 ABS      -0.093100
     37 C31         11.4540    -6.4550    -2.1960 c3         1 ABS      -0.134400
     38 C32         12.9520    -6.3980    -2.2220 c3         1 ABS       0.586000
     39 O5          13.6180    -5.4040    -1.9620 os         1 ABS      -0.499000
     40 O6          13.5210    -7.5560    -2.6280 oh         1 ABS      -0.617000
     41 H            7.2580     0.5910     3.7810 ho         1 ABS       0.460000
     42 H1           9.3390     1.0870     4.4860 h1         1 ABS       0.046700
     43 H2           8.7130     3.6140     3.6820 hc         1 ABS       0.053200
     44 H3          10.3760     3.0640     3.9070 hc         1 ABS       0.053200
     45 H4           8.8920     3.0710     1.2310 hc         1 ABS       0.046700
     46 H5          10.5740     2.5690     1.4820 hc         1 ABS       0.046700
     47 H6          11.1610     4.8150     2.2810 hc         1 ABS       0.039700
     48 H7           9.4940     5.3510     2.0010 hc         1 ABS       0.039700
     49 H8           9.7000     4.6790    -0.4140 hc         1 ABS       0.039700
     50 H9          11.3600     4.1550    -0.1280 hc         1 ABS       0.039700
     51 H10         11.9660     6.4610     0.6160 hc         1 ABS       0.039200
     52 H11         10.3030     6.9880     0.3360 hc         1 ABS       0.039200
     53 H12         10.5070     6.3460    -2.0750 hc         1 ABS       0.039200
     54 H13         12.1690     5.8220    -1.7950 hc         1 ABS       0.039200
     55 H14         12.7730     8.1380    -1.0480 hc         1 ABS       0.038700
     56 H15         11.1100     8.6620    -1.3280 hc         1 ABS       0.038700
     57 H16         12.9900     7.5250    -3.4630 hc         1 ABS       0.032033
     58 H17         12.5520     9.2330    -3.2600 hc         1 ABS       0.032033
     59 H18         11.3190     8.0510    -3.7430 hc         1 ABS       0.032033
     60 H19         10.4960     0.5420     2.2740 hc         1 ABS       0.100200
     61 H20          8.9090     0.9280     1.5010 hc         1 ABS       0.100200
     62 H21         10.9090    -0.9110     0.6320 h1         1 ABS       0.078700
     63 H22          8.0960    -0.2790    -0.1060 hc         1 ABS       0.061700
     64 H23          9.5710     0.6510    -0.3960 hc         1 ABS       0.061700
     65 H24          8.5660    -1.6150    -2.1460 hc         1 ABS       0.044200
     66 H25         10.0490    -0.6650    -2.4070 hc         1 ABS       0.044200
     67 H26          8.6730     1.3920    -2.5630 hc         1 ABS       0.043200
     68 H27          7.2080     0.4390    -2.2800 hc         1 ABS       0.043200
     69 H28          7.7320    -0.9700    -4.2820 hc         1 ABS       0.041700
     70 H29          9.1970    -0.0290    -4.5660 hc         1 ABS       0.041700
     71 H30          7.8200     2.0460    -4.7870 hc         1 ABS       0.039700
     72 H31          6.3530     1.1000    -4.5070 hc         1 ABS       0.039700
     73 H32          6.8760    -0.3040    -6.5120 hc         1 ABS       0.040200
     74 H33          8.3420     0.6400    -6.7910 hc         1 ABS       0.040200
     75 H34          6.9610     2.7170    -7.0270 hc         1 ABS       0.038700
     76 H35          5.4940     1.7740    -6.7480 hc         1 ABS       0.038700
     77 H36          7.4700     1.3360    -9.0480 hc         1 ABS       0.032700
     78 H37          5.8780     2.1130    -9.1730 hc         1 ABS       0.032700
     79 H38          5.9960     0.3880    -8.7680 hc         1 ABS       0.032700
     80 H39         10.7420    -2.4000    -1.3860 hc         1 ABS       0.099700
     81 H40          9.2190    -3.0440    -0.6490 hc         1 ABS       0.099700
     82 H41         11.1880    -4.3220    -2.4240 h1         1 ABS       0.079700
     83 H42          8.8740    -5.2570    -0.7950 hc         1 ABS       0.062200
     84 H43          8.9070    -4.2250    -2.2250 hc         1 ABS       0.062200
     85 H44          9.0400    -7.2460    -2.2950 hc         1 ABS       0.042700
     86 H45          9.0680    -6.1530    -3.7000 hc         1 ABS       0.042700
     87 H46          6.8380    -5.2810    -3.0300 hc         1 ABS       0.045200
     88 H47          6.8420    -6.3490    -1.6180 hc         1 ABS       0.045200
     89 H48          7.0960    -8.3380    -3.1170 hc         1 ABS       0.040700
     90 H49          7.0950    -7.2780    -4.5280 hc         1 ABS       0.040700
     91 H50          4.8270    -6.4380    -3.8920 hc         1 ABS       0.041200
     92 H51          4.8300    -7.5030    -2.4820 hc         1 ABS       0.041200
     93 H52          5.0800    -9.4890    -3.9830 hc         1 ABS       0.039700
     94 H53          5.0790    -8.4260    -5.3920 hc         1 ABS       0.039700
     95 H54          2.8000    -7.5950    -4.7650 hc         1 ABS       0.039200
     96 H55          2.8000    -8.6590    -3.3550 hc         1 ABS       0.039200
     97 H56          3.0210    -9.5790    -6.2690 hc         1 ABS       0.033367
     98 H57          1.5750    -9.6950    -5.2450 hc         1 ABS       0.033367
     99 H58          3.0210   -10.6490    -4.8530 hc         1 ABS       0.033367
    100 H59         11.1470    -6.7010    -3.2210 hc         1 ABS       0.092700
    101 H60         11.1450    -7.2550    -1.5140 hc         1 ABS       0.092700
    102 H61         12.9050    -8.2840    -2.8400 ho         1 ABS       0.466000
@<TRIPOS>BOND
     1     1     2 1   
     2     1    41 1   
     3     2     3 1   
     4     2    11 1   
     5     2    42 1   
     6     3     4 1   
     7     3    43 1   
     8     3    44 1   
     9     4     5 1   
    10     4    45 1   
    11     4    46 1   
    12     5     6 1   
    13     5    47 1   
    14     5    48 1   
    15     6     7 1   
    16     6    49 1   
    17     6    50 1   
    18     7     8 1   
    19     7    51 1   
    20     7    52 1   
    21     8     9 1   
    22     8    53 1   
    23     8    54 1   
    24     9    10 1   
    25     9    55 1   
    26     9    56 1   
    27    10    57 1   
    28    10    58 1   
    29    10    59 1   
    30    11    12 1   
    31    11    60 1   
    32    11    61 1   
    33    12    13 1   
    34    12    13 1   
    35    12    14 1   
    36    14    15 1   
    37    15    16 1   
    38    15    24 1   
    39    15    62 1   
    40    16    17 1   
    41    16    63 1   
    42    16    64 1   
    43    17    18 1   
    44    17    65 1   
    45    17    66 1   
    46    18    19 1   
    47    18    67 1   
    48    18    68 1   
    49    19    20 1   
    50    19    69 1   
    51    19    70 1   
    52    20    21 1   
    53    20    71 1   
    54    20    72 1   
    55    21    22 1   
    56    21    73 1   
    57    21    74 1   
    58    22    23 1   
    59    22    75 1   
    60    22    76 1   
    61    23    77 1   
    62    23    78 1   
    63    23    79 1   
    64    24    25 1   
    65    24    80 1   
    66    24    81 1   
    67    25    26 1   
    68    25    26 1   
    69    25    27 1   
    70    27    28 1   
    71    28    29 1   
    72    28    37 1   
    73    28    82 1   
    74    29    30 1   
    75    29    83 1   
    76    29    84 1   
    77    30    31 1   
    78    30    85 1   
    79    30    86 1   
    80    31    32 1   
    81    31    87 1   
    82    31    88 1   
    83    32    33 1   
    84    32    89 1   
    85    32    90 1   
    86    33    34 1   
    87    33    91 1   
    88    33    92 1   
    89    34    35 1   
    90    34    93 1   
    91    34    94 1   
    92    35    36 1   
    93    35    95 1   
    94    35    96 1   
    95    36    97 1   
    96    36    98 1   
    97    36    99 1   
    98    37    38 1   
    99    37   100 1   
   100    37   101 1   
   101    38    39 1   
   102    38    39 1   
   103    38    40 1   
   104    40   102 1   
@<TRIPOS>SUBSTRUCTURE
     1 ABS         1 TEMP              0 ****  ****    0 ROOT
