@<TRIPOS>MOLECULE
AGU
   96   113     1     0     0
SMALL
abcg2


@<TRIPOS>ATOM
      1 O           12.4330    -0.5260    -4.0310 oh         1 AGU      -0.333000
      2 C           13.2140     0.5200    -3.4470 c3         1 AGU       0.050000
      3 C1          14.6890     0.1330    -3.6530 c3         1 AGU      -0.154000
      4 C2          15.1440    -0.8380    -2.5640 c3         1 AGU      -0.165000
      5 C3          16.5410    -1.3710    -2.7520 c3         1 AGU      -0.023000
      6 O1          16.7560    -2.2910    -1.6770 os         1 AGU      -0.205000
      7 C4          18.0200    -2.7930    -1.5860 c3         1 AGU       0.132000
      8 C5          18.1230    -4.1200    -1.1620 c3         1 AGU      -0.174000
      9 C6          19.3790    -4.6910    -0.9420 c3         1 AGU      -0.035000
     10 C7          20.5300    -3.9420    -1.2170 c3         1 AGU      -0.176000
     11 N           21.8510    -4.5750    -1.1330 n4         1 AGU       0.574000
     12 O2          21.8990    -5.7650    -0.7910 os         1 AGU      -0.363000
     13 O3          22.8380    -3.8890    -1.4340 o          1 AGU      -0.365000
     14 C8          20.4300    -2.6080    -1.6260 c3         1 AGU      -0.026000
     15 C9          19.1700    -2.0340    -1.7970 c3         1 AGU      -0.223000
     16 C10         12.8570     0.6520    -1.9610 c3         1 AGU      -0.247000
     17 C11         11.4170     0.9910    -1.7290 c3         1 AGU       0.310000
     18 O4          10.6220     1.1340    -2.6550 os         1 AGU      -0.322000
     19 O5          10.9990     1.0220    -0.4370 os         1 AGU      -0.266000
     20 C12         11.8780     0.8310     0.7060 c3         1 AGU       0.049000
     21 C13         11.7230    -0.6380     1.1630 c3         1 AGU      -0.175000
     22 C14         11.4600    -0.7970     2.6600 c3         1 AGU      -0.170000
     23 C15         11.3110    -2.2430     3.0830 c3         1 AGU      -0.022000
     24 O6          10.9640    -2.2290     4.4710 os         1 AGU      -0.204000
     25 C16         10.9180    -3.4540     5.0710 c3         1 AGU       0.130000
     26 C17          9.9470    -3.6160     6.0630 c3         1 AGU      -0.172000
     27 C18          9.8910    -4.7970     6.8090 c3         1 AGU      -0.035000
     28 C19         10.7720    -5.8420     6.5050 c3         1 AGU      -0.174000
     29 N1          10.6300    -7.1380     7.1790 n4         1 AGU       0.574000
     30 O7           9.7330    -7.2520     8.0260 os         1 AGU      -0.362000
     31 O8          11.4000    -8.0500     6.8410 o          1 AGU      -0.363000
     32 C20         11.7540    -5.6800     5.5220 c3         1 AGU      -0.026000
     33 C21         11.8300    -4.4780     4.8160 c3         1 AGU      -0.222000
     34 C22         11.4790     1.8390     1.7850 c3         1 AGU      -0.229000
     35 C23         11.6430     3.2680     1.3580 c3         1 AGU       0.315000
     36 O9          12.0610     3.5850     0.2480 os         1 AGU      -0.323000
     37 O10         11.2990     4.2110     2.2740 os         1 AGU      -0.266000
     38 C24         10.8460     3.9220     3.6250 c3         1 AGU       0.047000
     39 C25          9.3110     3.9400     3.6180 c3         1 AGU      -0.168000
     40 C26          8.7430     5.2430     3.0530 c3         1 AGU      -0.168000
     41 C27          7.2220     5.2330     3.0400 c3         1 AGU      -0.023000
     42 O11          6.7840     6.4570     2.4480 os         1 AGU      -0.205000
     43 C28          5.4340     6.6720     2.4700 c3         1 AGU       0.127000
     44 C29          4.9010     7.3360     1.3610 c3         1 AGU      -0.170000
     45 C30          3.5530     7.7100     1.3380 c3         1 AGU      -0.035000
     46 C31          2.7230     7.3500     2.4060 c3         1 AGU      -0.172000
     47 N2           1.2800     7.6090     2.3320 n4         1 AGU       0.574000
     48 O12          0.8450     8.1680     1.3150 os         1 AGU      -0.360000
     49 O13          0.5780     7.2280     3.2800 o          1 AGU      -0.362000
     50 C32          3.2520     6.6950     3.5240 c3         1 AGU      -0.026000
     51 C33          4.6110     6.3670     3.5560 c3         1 AGU      -0.221000
     52 C34         11.4290     4.9740     4.5840 c3         1 AGU      -0.230000
     53 C35         12.9340     4.9070     4.5900 c3         1 AGU       0.306000
     54 O14         13.5970     4.1020     3.9390 os         1 AGU      -0.326000
     55 O15         13.5190     5.8040     5.4110 oh         1 AGU      -0.276000
     56 H           11.4980    -0.2350    -3.9720 ho         1 AGU       0.225000
     57 H1          12.9990     1.4470    -3.9920 h1         1 AGU       0.092000
     58 H2          14.8200    -0.3350    -4.6370 hc         1 AGU       0.095500
     59 H3          15.3200     1.0310    -3.6330 hc         1 AGU       0.095500
     60 H4          14.4420    -1.6790    -2.4910 hc         1 AGU       0.106000
     61 H5          15.1310    -0.3320    -1.5890 hc         1 AGU       0.106000
     62 H6          17.2270    -0.5200    -2.7180 h1         1 AGU       0.086000
     63 H7          16.6250    -1.9000    -3.7060 h1         1 AGU       0.086000
     64 H8          17.2240    -4.7150    -1.0170 hc         1 AGU       0.163000
     65 H9          19.4420    -5.7100    -0.5660 hc         1 AGU       0.173000
     66 H10         21.3120    -2.0000    -1.8090 hc         1 AGU       0.171000
     67 H11         19.1170    -0.9890    -2.0820 hc         1 AGU       0.152000
     68 H12         13.5020     1.4140    -1.5130 hc         1 AGU       0.139000
     69 H13         12.9900    -0.3180    -1.4700 hc         1 AGU       0.139000
     70 H14         12.9250     1.0170     0.4500 h1         1 AGU       0.112000
     71 H15         10.9190    -1.1300     0.6000 hc         1 AGU       0.107500
     72 H16         12.6410    -1.1820     0.9010 hc         1 AGU       0.107500
     73 H17         10.5420    -0.2700     2.9460 hc         1 AGU       0.108000
     74 H18         12.2770    -0.3500     3.2380 hc         1 AGU       0.108000
     75 H19         12.2620    -2.7450     2.8900 h1         1 AGU       0.088000
     76 H20         10.5030    -2.7200     2.5190 h1         1 AGU       0.088000
     77 H21          9.2220    -2.8270     6.2490 hc         1 AGU       0.163000
     78 H22          9.1630    -4.8870     7.6120 hc         1 AGU       0.173000
     79 H23         12.4710    -6.4670     5.2970 hc         1 AGU       0.172000
     80 H24         12.6220    -4.3650     4.0840 hc         1 AGU       0.151000
     81 H25         12.1380     1.6910     2.6450 hc         1 AGU       0.151000
     82 H26         10.4290     1.6840     2.0490 hc         1 AGU       0.151000
     83 H27         11.1860     2.9390     3.9660 h1         1 AGU       0.116000
     84 H28          8.9440     3.1130     2.9970 hc         1 AGU       0.098500
     85 H29          8.9330     3.7640     4.6330 hc         1 AGU       0.098500
     86 H30          9.1150     5.4210     2.0370 hc         1 AGU       0.108500
     87 H31          9.0780     6.0990     3.6500 hc         1 AGU       0.108500
     88 H32          6.8840     5.1290     4.0750 h1         1 AGU       0.086500
     89 H33          6.8550     4.3920     2.4410 h1         1 AGU       0.086500
     90 H34          5.5350     7.5550     0.5040 hc         1 AGU       0.164000
     91 H35          3.1710     8.2720     0.4890 hc         1 AGU       0.175000
     92 H36          2.6290     6.4420     4.3800 hc         1 AGU       0.172000
     93 H37          5.0010     5.8920     4.4490 hc         1 AGU       0.151000
     94 H38         11.0670     4.7760     5.6000 hc         1 AGU       0.134500
     95 H39         11.1410     5.9860     4.2850 hc         1 AGU       0.134500
     96 H40         12.9160     6.3990     5.8970 ho         1 AGU       0.230000
@<TRIPOS>BOND
     1     1     2 1   
     2     1    56 1   
     3     2     3 1   
     4     2    16 1   
     5     2    57 1   
     6     3     4 1   
     7     3    58 1   
     8     3    59 1   
     9     4     5 1   
    10     4    60 1   
    11     4    61 1   
    12     5     6 1   
    13     5    62 1   
    14     5    63 1   
    15     6     7 1   
    16     7     8 1   
    17     7     8 1   
    18     7    15 1   
    19     8     9 1   
    20     8    64 1   
    21     9    10 1   
    22     9    10 1   
    23     9    65 1   
    24    10    11 1   
    25    10    14 1   
    26    11    12 1   
    27    11    12 1   
    28    11    13 1   
    29    14    15 1   
    30    14    15 1   
    31    14    66 1   
    32    15    67 1   
    33    16    17 1   
    34    16    68 1   
    35    16    69 1   
    36    17    18 1   
    37    17    18 1   
    38    17    19 1   
    39    19    20 1   
    40    20    21 1   
    41    20    34 1   
    42    20    70 1   
    43    21    22 1   
    44    21    71 1   
    45    21    72 1   
    46    22    23 1   
    47    22    73 1   
    48    22    74 1   
    49    23    24 1   
    50    23    75 1   
    51    23    76 1   
    52    24    25 1   
    53    25    26 1   
    54    25    26 1   
    55    25    33 1   
    56    26    27 1   
    57    26    77 1   
    58    27    28 1   
    59    27    28 1   
    60    27    78 1   
    61    28    29 1   
    62    28    32 1   
    63    29    30 1   
    64    29    30 1   
    65    29    31 1   
    66    32    33 1   
    67    32    33 1   
    68    32    79 1   
    69    33    80 1   
    70    34    35 1   
    71    34    81 1   
    72    34    82 1   
    73    35    36 1   
    74    35    36 1   
    75    35    37 1   
    76    37    38 1   
    77    38    39 1   
    78    38    52 1   
    79    38    83 1   
    80    39    40 1   
    81    39    84 1   
    82    39    85 1   
    83    40    41 1   
    84    40    86 1   
    85    40    87 1   
    86    41    42 1   
    87    41    88 1   
    88    41    89 1   
    89    42    43 1   
    90    43    44 1   
    91    43    44 1   
    92    43    51 1   
    93    44    45 1   
    94    44    90 1   
    95    45    46 1   
    96    45    46 1   
    97    45    91 1   
    98    46    47 1   
    99    46    50 1   
   100    47    48 1   
   101    47    48 1   
   102    47    49 1   
   103    50    51 1   
   104    50    51 1   
   105    50    92 1   
   106    51    93 1   
   107    52    53 1   
   108    52    94 1   
   109    52    95 1   
   110    53    54 1   
   111    53    54 1   
   112    53    55 1   
   113    55    96 1   
@<TRIPOS>SUBSTRUCTURE
     1 AGU         1 TEMP              0 ****  ****    0 ROOT
