@<TRIPOS>MOLECULE
AAA
   39    41     1     0     0
SMALL
abcg2


@<TRIPOS>ATOM
      1 O            2.3730     2.7380    -0.0900 oh         1 AAA      -0.690000
      2 C            2.8280     1.3710    -0.0930 c3         1 AAA       0.173300
      3 C1           4.3220     1.3450    -0.3940 c3         1 AAA      -0.131100
      4 C2           2.0260     0.5870    -1.1320 c3         1 AAA      -0.084400
      5 C3           1.7150    -0.7990    -0.6300 c3         1 AAA       0.596000
      6 O1           2.4850    -1.4950     0.0170 os         1 AAA      -0.537000
      7 O2           0.4700    -1.1740    -1.0410 os         1 AAA      -0.475000
      8 C4          -0.0050    -2.4550    -0.5770 c3         1 AAA       0.179300
      9 C5           0.5260    -3.5430    -1.5080 c3         1 AAA      -0.121100
     10 C6          -1.5300    -2.4250    -0.6210 c3         1 AAA      -0.083400
     11 C7          -2.0560    -1.6160     0.5330 c3         1 AAA       0.598000
     12 O3          -2.2260    -2.0660     1.6580 os         1 AAA      -0.539000
     13 O4          -2.2930    -0.3320     0.1490 os         1 AAA      -0.470000
     14 C8          -2.6810     0.5870     1.1930 c3         1 AAA       0.174300
     15 C9          -4.1990     0.5410     1.3410 c3         1 AAA      -0.116100
     16 C10         -2.2290     1.9860     0.7700 c3         1 AAA      -0.085400
     17 C11         -0.7290     2.0870     0.8020 c3         1 AAA       0.607000
     18 O5           0.0370     1.3790     1.4350 os         1 AAA      -0.585000
     19 O6          -0.2770     3.0960     0.0310 oh         1 AAA      -0.648000
     20 H            2.9920     3.2270     0.4890 ho         1 AAA       0.467000
     21 H1           2.6580     0.9850     0.9180 h1         1 AAA       0.058700
     22 H2           4.7080     0.3220    -0.4160 hc         1 AAA       0.051033
     23 H3           4.8760     1.9070     0.3660 hc         1 AAA       0.051033
     24 H4           4.5370     1.8250    -1.3550 hc         1 AAA       0.051033
     25 H5           2.5620     0.4950    -2.0830 hc         1 AAA       0.090200
     26 H6           1.0830     1.1020    -1.3470 hc         1 AAA       0.090200
     27 H7           0.3370    -2.6370     0.4500 h1         1 AAA       0.087700
     28 H8           0.2230    -3.3530    -2.5430 hc         1 AAA       0.054367
     29 H9           0.1620    -4.5310    -1.2110 hc         1 AAA       0.054367
     30 H10          1.6200    -3.5650    -1.5020 hc         1 AAA       0.054367
     31 H11         -1.9570    -3.4310    -0.5310 hc         1 AAA       0.092200
     32 H12         -1.9030    -1.9990    -1.5600 hc         1 AAA       0.092200
     33 H13         -2.2070     0.3140     2.1440 h1         1 AAA       0.094700
     34 H14         -4.6920     0.7760     0.3910 hc         1 AAA       0.052700
     35 H15         -4.5450     1.2480     2.1010 hc         1 AAA       0.052700
     36 H16         -4.5310    -0.4620     1.6270 hc         1 AAA       0.052700
     37 H17         -2.6300     2.7500     1.4430 hc         1 AAA       0.093700
     38 H18         -2.5630     2.1890    -0.2550 hc         1 AAA       0.093700
     39 H19          0.7130     3.0260     0.0450 ho         1 AAA       0.503000
@<TRIPOS>BOND
     1     1     2 1   
     2     1    20 1   
     3     2     3 1   
     4     2     4 1   
     5     2    21 1   
     6     3    22 1   
     7     3    23 1   
     8     3    24 1   
     9     4     5 1   
    10     4    25 1   
    11     4    26 1   
    12     5     6 1   
    13     5     6 1   
    14     5     7 1   
    15     7     8 1   
    16     8     9 1   
    17     8    10 1   
    18     8    27 1   
    19     9    28 1   
    20     9    29 1   
    21     9    30 1   
    22    10    11 1   
    23    10    31 1   
    24    10    32 1   
    25    11    12 1   
    26    11    12 1   
    27    11    13 1   
    28    13    14 1   
    29    14    15 1   
    30    14    16 1   
    31    14    33 1   
    32    15    34 1   
    33    15    35 1   
    34    15    36 1   
    35    16    17 1   
    36    16    37 1   
    37    16    38 1   
    38    17    18 1   
    39    17    18 1   
    40    17    19 1   
    41    19    39 1   
@<TRIPOS>SUBSTRUCTURE
     1 AAA         1 TEMP              0 ****  ****    0 ROOT
