@<TRIPOS>MOLECULE
AKI
   75    77     1     0     0
SMALL
abcg2


@<TRIPOS>ATOM
      1 O            0.9670     0.2320     0.0430 oh         1 AKI      -0.665000
      2 C            2.3990     0.1650     0.0760 c3         1 AKI       0.172300
      3 C1           2.7540    -1.3660     0.2510 c3         1 AKI      -0.095700
      4 C2           4.2130    -1.6110     0.0300 c3         1 AKI      -0.079400
      5 C3           4.4310    -1.6080    -1.4630 c3         1 AKI      -0.093600
      6 C4           2.3710    -1.9350     1.6360 c3         1 AKI      -0.079400
      7 C5           2.8740    -3.3660     1.8600 c3         1 AKI      -0.093600
      8 C6           2.9280     0.9570    -1.1800 c3         1 AKI      -0.085400
      9 C7           4.4410     1.3550    -1.0700 c3         1 AKI       0.611000
     10 O1           4.9990     1.5580    -0.0080 os         1 AKI      -0.583000
     11 O2           5.1150     1.3170    -2.2810 os         1 AKI      -0.465000
     12 C8           6.6130     1.2660    -2.2790 c3         1 AKI       0.177300
     13 C9           7.1140    -0.2550    -2.0950 c3         1 AKI      -0.062700
     14 C10          8.5250    -0.5280    -2.4800 c3         1 AKI      -0.086400
     15 C11          8.6540    -0.5530    -3.9810 c3         1 AKI      -0.092600
     16 C12          7.1320    -0.8240    -0.6280 c3         1 AKI      -0.086400
     17 C13          7.3860    -2.3640    -0.5480 c3         1 AKI      -0.092600
     18 C14          7.1100     1.9960    -3.6060 c3         1 AKI      -0.105400
     19 C15          8.6450     2.3640    -3.5380 c3         1 AKI       0.592000
     20 O3           9.2040     2.6130    -2.4860 os         1 AKI      -0.534000
     21 O4           9.3340     2.2380    -4.7390 os         1 AKI      -0.471000
     22 C16         10.8500     2.2320    -4.7510 c3         1 AKI       0.178300
     23 C17         11.5050     0.7540    -4.5770 c3         1 AKI      -0.065700
     24 C18         13.0090     0.5720    -4.7800 c3         1 AKI      -0.085400
     25 C19         13.5040     0.6520    -6.1910 c3         1 AKI      -0.091600
     26 C20         11.3880     0.1790    -3.1290 c3         1 AKI      -0.085400
     27 C21         11.5720    -1.3610    -3.0300 c3         1 AKI      -0.091600
     28 C22         11.2690     2.9200    -6.0890 c3         1 AKI      -0.150400
     29 C23         12.7070     3.4460    -6.0040 c3         1 AKI       0.587000
     30 O5          13.3250     3.5780    -4.9840 os         1 AKI      -0.506000
     31 O6          13.2940     3.6640    -7.2180 oh         1 AKI      -0.629000
     32 H            0.6430    -0.1690     0.8690 ho         1 AKI       0.449000
     33 H1           2.7250     0.7120     0.9680 h1         1 AKI       0.056700
     34 H2           2.2060    -1.9540    -0.4950 hc         1 AKI       0.065700
     35 H3           4.6230    -2.5640     0.3630 hc         1 AKI       0.041450
     36 H4           4.7050    -0.8790     0.6880 hc         1 AKI       0.041450
     37 H5           3.9440    -2.3910    -2.0250 hc         1 AKI       0.036867
     38 H6           5.4430    -1.7340    -1.7180 hc         1 AKI       0.036867
     39 H7           4.1870    -0.6900    -1.9380 hc         1 AKI       0.036867
     40 H8           1.2820    -1.9490     1.7220 hc         1 AKI       0.041450
     41 H9           2.7620    -1.2930     2.4350 hc         1 AKI       0.041450
     42 H10          2.5750    -4.0130     1.0290 hc         1 AKI       0.036867
     43 H11          2.4800    -3.7740     2.7920 hc         1 AKI       0.036867
     44 H12          3.9650    -3.4190     1.9560 hc         1 AKI       0.036867
     45 H13          2.3400     1.8680    -1.3360 hc         1 AKI       0.099700
     46 H14          2.7020     0.3650    -2.0770 hc         1 AKI       0.099700
     47 H15          6.9720     1.8540    -1.4330 h1         1 AKI       0.088700
     48 H16          6.5460    -0.8630    -2.8080 hc         1 AKI       0.062700
     49 H17          8.9100    -1.4980    -2.1580 hc         1 AKI       0.051700
     50 H18          9.0540     0.1880    -1.8380 hc         1 AKI       0.051700
     51 H19          8.1700    -1.3760    -4.4870 hc         1 AKI       0.035367
     52 H20          9.6550    -0.5950    -4.3180 hc         1 AKI       0.035367
     53 H21          8.3050     0.3300    -4.4480 hc         1 AKI       0.035367
     54 H22          6.1970    -0.6250    -0.1690 hc         1 AKI       0.051700
     55 H23          7.7870    -0.2630     0.0450 hc         1 AKI       0.051700
     56 H24          6.9410    -2.9060    -1.3950 hc         1 AKI       0.035367
     57 H25          6.9460    -2.7950     0.3560 hc         1 AKI       0.035367
     58 H26          8.4480    -2.6200    -0.5440 hc         1 AKI       0.035367
     59 H27          6.5270     2.9040    -3.7960 hc         1 AKI       0.094200
     60 H28          6.8450     1.3690    -4.4700 hc         1 AKI       0.094200
     61 H29         11.1770     2.8530    -3.9160 h1         1 AKI       0.098700
     62 H30         11.0190     0.1150    -5.3300 hc         1 AKI       0.059700
     63 H31         13.3140    -0.4340    -4.4690 hc         1 AKI       0.052200
     64 H32         13.5150     1.2500    -4.0870 hc         1 AKI       0.052200
     65 H33         13.2500    -0.2300    -6.7780 hc         1 AKI       0.033367
     66 H34         14.5780     0.8380    -6.1780 hc         1 AKI       0.033367
     67 H35         13.0360     1.4310    -6.7490 hc         1 AKI       0.033367
     68 H36         10.4340     0.4340    -2.7610 hc         1 AKI       0.052200
     69 H37         11.9930     0.7250    -2.4000 hc         1 AKI       0.052200
     70 H38         11.1040    -1.8920    -3.8710 hc         1 AKI       0.033367
     71 H39         11.1180    -1.7650    -2.1200 hc         1 AKI       0.033367
     72 H40         12.6220    -1.6570    -3.0160 hc         1 AKI       0.033367
     73 H41         10.6340     3.7830    -6.3140 hc         1 AKI       0.092200
     74 H42         11.1260     2.2180    -6.9230 hc         1 AKI       0.092200
     75 H43         12.7970     3.3990    -8.0110 ho         1 AKI       0.487000
@<TRIPOS>BOND
     1     1     2 1   
     2     1    32 1   
     3     2     3 1   
     4     2     8 1   
     5     2    33 1   
     6     3     4 1   
     7     3     6 1   
     8     3    34 1   
     9     4     5 1   
    10     4    35 1   
    11     4    36 1   
    12     5    37 1   
    13     5    38 1   
    14     5    39 1   
    15     6     7 1   
    16     6    40 1   
    17     6    41 1   
    18     7    42 1   
    19     7    43 1   
    20     7    44 1   
    21     8     9 1   
    22     8    45 1   
    23     8    46 1   
    24     9    10 1   
    25     9    10 1   
    26     9    11 1   
    27    11    12 1   
    28    12    13 1   
    29    12    18 1   
    30    12    47 1   
    31    13    14 1   
    32    13    16 1   
    33    13    48 1   
    34    14    15 1   
    35    14    49 1   
    36    14    50 1   
    37    15    51 1   
    38    15    52 1   
    39    15    53 1   
    40    16    17 1   
    41    16    54 1   
    42    16    55 1   
    43    17    56 1   
    44    17    57 1   
    45    17    58 1   
    46    18    19 1   
    47    18    59 1   
    48    18    60 1   
    49    19    20 1   
    50    19    20 1   
    51    19    21 1   
    52    21    22 1   
    53    22    23 1   
    54    22    28 1   
    55    22    61 1   
    56    23    24 1   
    57    23    26 1   
    58    23    62 1   
    59    24    25 1   
    60    24    63 1   
    61    24    64 1   
    62    25    65 1   
    63    25    66 1   
    64    25    67 1   
    65    26    27 1   
    66    26    68 1   
    67    26    69 1   
    68    27    70 1   
    69    27    71 1   
    70    27    72 1   
    71    28    29 1   
    72    28    73 1   
    73    28    74 1   
    74    29    30 1   
    75    29    30 1   
    76    29    31 1   
    77    31    75 1   
@<TRIPOS>SUBSTRUCTURE
     1 AKI         1 TEMP              0 ****  ****    0 ROOT
