@<TRIPOS>MOLECULE
AEA
   96   110     1     0     0
SMALL
abcg2


@<TRIPOS>ATOM
      1 O           16.2180     1.8720     2.6140 oh         1 AEA      -0.670000
      2 C           15.6520     0.9110     3.4990 c3         1 AEA       0.182300
      3 C1          16.7210     0.4740     4.4900 c3         1 AEA      -0.080400
      4 C2          16.0900     0.0960     5.8250 c3         1 AEA      -0.085400
      5 C3          17.1840    -0.3130     6.7830 c3         1 AEA      -0.074400
      6 C4          16.6310    -0.6440     8.1610 c3         1 AEA      -0.045400
      7 C5          17.6960    -1.1080     9.1220 c3         1 AEA      -0.069000
      8 C6          19.0560    -1.1610     8.7780 c3         1 AEA      -0.088700
      9 C7          19.9770    -1.7790     9.6140 c3         1 AEA      -0.089200
     10 C8          19.5680    -2.2530    10.8550 c3         1 AEA      -0.094700
     11 C9          18.2330    -2.1420    11.2420 c3         1 AEA      -0.089200
     12 C10         17.2980    -1.5780    10.3770 c3         1 AEA      -0.088700
     13 C11         15.2020    -0.2830     2.6890 c3         1 AEA      -0.166400
     14 C12         14.0870     0.1120     1.7450 c3         1 AEA       0.595000
     15 O1          13.7000     1.2700     1.6090 os         1 AEA      -0.518000
     16 O2          13.5900    -0.8750     0.9580 os         1 AEA      -0.457000
     17 C13         13.8160    -2.2470     1.2970 c3         1 AEA       0.178300
     18 C14         14.1470    -2.9900     0.0100 c3         1 AEA      -0.094400
     19 C15         15.6520    -2.9080    -0.2260 c3         1 AEA      -0.083400
     20 C16         15.9920    -3.6600    -1.4860 c3         1 AEA      -0.074400
     21 C17         17.4840    -3.6170    -1.7770 c3         1 AEA      -0.044400
     22 C18         17.8570    -4.4050    -3.0060 c3         1 AEA      -0.071000
     23 C19         16.9050    -5.0520    -3.8100 c3         1 AEA      -0.087700
     24 C20         17.3000    -5.9280    -4.8130 c3         1 AEA      -0.088700
     25 C21         18.6500    -6.0810    -5.0970 c3         1 AEA      -0.092700
     26 C22         19.6060    -5.3900    -4.3540 c3         1 AEA      -0.088700
     27 C23         19.2130    -4.5590    -3.3070 c3         1 AEA      -0.087700
     28 C24         12.5810    -2.8170     1.9470 c3         1 AEA      -0.146400
     29 C25         12.2140    -2.1350     3.2610 c3         1 AEA       0.600000
     30 O3          12.6920    -1.0830     3.6720 os         1 AEA      -0.517000
     31 O4          11.2510    -2.7160     4.0060 os         1 AEA      -0.454000
     32 C26         10.8110    -4.0460     3.7370 c3         1 AEA       0.177300
     33 C27          9.2900    -3.9690     3.7440 c3         1 AEA      -0.093400
     34 C28          8.7940    -4.0480     2.3000 c3         1 AEA      -0.084400
     35 C29          7.2870    -4.0260     2.2930 c3         1 AEA      -0.073400
     36 C30          6.7300    -4.1340     0.8820 c3         1 AEA      -0.045400
     37 C31          5.2240    -4.1840     0.8590 c3         1 AEA      -0.072000
     38 C32          4.4440    -4.0790     2.0210 c3         1 AEA      -0.085700
     39 C33          3.0790    -4.3280     1.9860 c3         1 AEA      -0.088700
     40 C34          2.4580    -4.5760     0.7680 c3         1 AEA      -0.092700
     41 C35          3.2090    -4.6130    -0.4060 c3         1 AEA      -0.088700
     42 C36          4.5880    -4.4250    -0.3620 c3         1 AEA      -0.089700
     43 C37         11.3920    -5.0010     4.7790 c3         1 AEA      -0.148400
     44 C38         12.9110    -5.0140     4.7890 c3         1 AEA       0.588000
     45 O5          13.6450    -4.2850     4.1250 os         1 AEA      -0.511000
     46 O6          13.4530    -5.9340     5.6040 oh         1 AEA      -0.614000
     47 H           15.4680     2.1760     2.0590 ho         1 AEA       0.461000
     48 H1          14.8090     1.3770     4.0240 h1         1 AEA       0.049700
     49 H2          17.2860    -0.3850     4.0970 hc         1 AEA       0.057700
     50 H3          17.4550     1.2740     4.6340 hc         1 AEA       0.057700
     51 H4          15.3710    -0.7240     5.7060 hc         1 AEA       0.046200
     52 H5          15.5480     0.9550     6.2350 hc         1 AEA       0.046200
     53 H6          17.9090     0.5070     6.8630 hc         1 AEA       0.044700
     54 H7          17.7110    -1.1850     6.3710 hc         1 AEA       0.044700
     55 H8          15.8970    -1.4550     8.0550 hc         1 AEA       0.049700
     56 H9          16.1070     0.2240     8.5770 hc         1 AEA       0.049700
     57 H10         19.4260    -0.7520     7.8410 hc         1 AEA       0.091700
     58 H11         21.0030    -1.9040     9.2800 hc         1 AEA       0.090200
     59 H12         20.2950    -2.7060    11.5210 hc         1 AEA       0.090700
     60 H13         17.9130    -2.5220    12.2070 hc         1 AEA       0.090200
     61 H14         16.2520    -1.5240    10.6720 hc         1 AEA       0.091700
     62 H15         14.8950    -1.0570     3.3960 hc         1 AEA       0.099700
     63 H16         16.0300    -0.6680     2.0830 hc         1 AEA       0.099700
     64 H17         14.6570    -2.4020     1.9730 h1         1 AEA       0.076700
     65 H18         13.8620    -4.0470     0.0820 hc         1 AEA       0.062700
     66 H19         13.6100    -2.5580    -0.8450 hc         1 AEA       0.062700
     67 H20         16.1880    -3.3560     0.6210 hc         1 AEA       0.044700
     68 H21         15.9740    -1.8640    -0.3080 hc         1 AEA       0.044700
     69 H22         15.4330    -3.2200    -2.3210 hc         1 AEA       0.047200
     70 H23         15.6640    -4.7040    -1.3760 hc         1 AEA       0.047200
     71 H24         18.0190    -4.0520    -0.9210 hc         1 AEA       0.049700
     72 H25         17.8190    -2.5780    -1.8820 hc         1 AEA       0.049700
     73 H26         15.8380    -4.9150    -3.6570 hc         1 AEA       0.092700
     74 H27         16.5480    -6.4970    -5.3520 hc         1 AEA       0.091200
     75 H28         18.9560    -6.7390    -5.9030 hc         1 AEA       0.090700
     76 H29         20.6620    -5.5180    -4.5700 hc         1 AEA       0.091200
     77 H30         19.9660    -4.0480    -2.7100 hc         1 AEA       0.090700
     78 H31         12.8370    -3.8670     2.1110 hc         1 AEA       0.108200
     79 H32         11.7220    -2.7710     1.2740 hc         1 AEA       0.108200
     80 H33         11.1130    -4.4010     2.7550 h1         1 AEA       0.077700
     81 H34          8.8600    -4.7910     4.3230 hc         1 AEA       0.059700
     82 H35          8.9320    -3.0290     4.1890 hc         1 AEA       0.059700
     83 H36          9.1500    -4.9750     1.8350 hc         1 AEA       0.046700
     84 H37          9.1820    -3.2100     1.7070 hc         1 AEA       0.046700
     85 H38          6.9440    -3.0970     2.7620 hc         1 AEA       0.045700
     86 H39          6.9230    -4.8660     2.9020 hc         1 AEA       0.045700
     87 H40          7.1050    -5.0620     0.4290 hc         1 AEA       0.052200
     88 H41          7.0870    -3.2990     0.2670 hc         1 AEA       0.052200
     89 H42          4.8820    -3.8290     2.9840 hc         1 AEA       0.093700
     90 H43          2.5140    -4.3440     2.9130 hc         1 AEA       0.091200
     91 H44          1.3850    -4.7360     0.7370 hc         1 AEA       0.091700
     92 H45          2.7230    -4.8170    -1.3560 hc         1 AEA       0.091200
     93 H46          5.1700    -4.4870    -1.2790 hc         1 AEA       0.089700
     94 H47         11.0450    -6.0080     4.5230 hc         1 AEA       0.092700
     95 H48         11.0400    -4.7280     5.7770 hc         1 AEA       0.092700
     96 H49         12.8260    -6.4590     6.1310 ho         1 AEA       0.468000
@<TRIPOS>BOND
     1     1     2 1   
     2     1    47 1   
     3     2     3 1   
     4     2    13 1   
     5     2    48 1   
     6     3     4 1   
     7     3    49 1   
     8     3    50 1   
     9     4     5 1   
    10     4    51 1   
    11     4    52 1   
    12     5     6 1   
    13     5    53 1   
    14     5    54 1   
    15     6     7 1   
    16     6    55 1   
    17     6    56 1   
    18     7     8 1   
    19     7     8 1   
    20     7    12 1   
    21     8     9 1   
    22     8    57 1   
    23     9    10 1   
    24     9    10 1   
    25     9    58 1   
    26    10    11 1   
    27    10    59 1   
    28    11    12 1   
    29    11    12 1   
    30    11    60 1   
    31    12    61 1   
    32    13    14 1   
    33    13    62 1   
    34    13    63 1   
    35    14    15 1   
    36    14    15 1   
    37    14    16 1   
    38    16    17 1   
    39    17    18 1   
    40    17    28 1   
    41    17    64 1   
    42    18    19 1   
    43    18    65 1   
    44    18    66 1   
    45    19    20 1   
    46    19    67 1   
    47    19    68 1   
    48    20    21 1   
    49    20    69 1   
    50    20    70 1   
    51    21    22 1   
    52    21    71 1   
    53    21    72 1   
    54    22    23 1   
    55    22    23 1   
    56    22    27 1   
    57    23    24 1   
    58    23    73 1   
    59    24    25 1   
    60    24    25 1   
    61    24    74 1   
    62    25    26 1   
    63    25    75 1   
    64    26    27 1   
    65    26    27 1   
    66    26    76 1   
    67    27    77 1   
    68    28    29 1   
    69    28    78 1   
    70    28    79 1   
    71    29    30 1   
    72    29    30 1   
    73    29    31 1   
    74    31    32 1   
    75    32    33 1   
    76    32    43 1   
    77    32    80 1   
    78    33    34 1   
    79    33    81 1   
    80    33    82 1   
    81    34    35 1   
    82    34    83 1   
    83    34    84 1   
    84    35    36 1   
    85    35    85 1   
    86    35    86 1   
    87    36    37 1   
    88    36    87 1   
    89    36    88 1   
    90    37    38 1   
    91    37    38 1   
    92    37    42 1   
    93    38    39 1   
    94    38    89 1   
    95    39    40 1   
    96    39    40 1   
    97    39    90 1   
    98    40    41 1   
    99    40    91 1   
   100    41    42 1   
   101    41    42 1   
   102    41    92 1   
   103    42    93 1   
   104    43    44 1   
   105    43    94 1   
   106    43    95 1   
   107    44    45 1   
   108    44    45 1   
   109    44    46 1   
   110    46    96 1   
@<TRIPOS>SUBSTRUCTURE
     1 AEA         1 TEMP              0 ****  ****    0 ROOT
