@<TRIPOS>MOLECULE
AJK
   36    41     1     0     0
SMALL
abcg2


@<TRIPOS>ATOM
      1 O            0.9410     0.0960    -0.0590 oh         1 AJK      -0.645000
      2 C            2.3690     0.0580    -0.0730 c3         1 AJK       0.103300
      3 C1           2.8210    -1.2330    -0.7510 c3         1 AJK       0.382300
      4 O1           2.4350    -2.3410    -0.3790 os         1 AJK      -0.468000
      5 C2           2.9160     1.3110    -0.7700 c3         1 AJK      -0.109400
      6 C3           4.4230     1.3300    -0.6570 c3         1 AJK       0.605000
      7 O2           5.0290     0.5380     0.0580 os         1 AJK      -0.540000
      8 O3           5.0160     2.3120    -1.4060 os         1 AJK      -0.455000
      9 C4           6.4720     2.3120    -1.3870 c3         1 AJK       0.100300
     10 C5           7.0220     1.0750    -2.1240 c3         1 AJK       0.392300
     11 O4           6.7360    -0.0920    -1.8690 os         1 AJK      -0.450000
     12 C6           7.0340     3.6000    -2.0590 c3         1 AJK      -0.077400
     13 C7           8.5520     3.6350    -1.9510 c3         1 AJK       0.595000
     14 O5           9.1650     2.8470    -1.2370 os         1 AJK      -0.516000
     15 O6           9.1490     4.6180    -2.7000 os         1 AJK      -0.466000
     16 C8          10.6110     4.6190    -2.6860 c3         1 AJK       0.106300
     17 C9          11.1610     3.3850    -3.4280 c3         1 AJK       0.403300
     18 O7          10.8860     2.2170    -3.1700 os         1 AJK      -0.464000
     19 C10         11.1720     5.9020    -3.3600 c3         1 AJK      -0.130400
     20 C11         12.6890     5.9150    -3.3180 c3         1 AJK       0.582000
     21 O8          13.3590     5.0270    -2.8030 os         1 AJK      -0.487000
     22 O9          13.2780     6.9590    -3.9310 oh         1 AJK      -0.612000
     23 H            0.6560    -0.7430     0.3590 ho         1 AJK       0.461000
     24 H1           2.7060     0.0220     0.9700 h1         1 AJK       0.102700
     25 H2           3.4780    -1.1290    -1.6310 h2         1 AJK       0.097700
     26 H3           2.5170     2.2020    -0.2730 hc         1 AJK       0.101200
     27 H4           2.5980     1.3300    -1.8170 hc         1 AJK       0.101200
     28 H5           6.8150     2.2900    -0.3440 h1         1 AJK       0.117700
     29 H6           7.6780     1.2800    -2.9840 h2         1 AJK       0.100700
     30 H7           6.6340     4.4880    -1.5550 hc         1 AJK       0.098700
     31 H8           6.7250     3.6370    -3.1100 hc         1 AJK       0.098700
     32 H9          10.9650     4.6010    -1.6460 h1         1 AJK       0.119700
     33 H10         11.8080     3.5930    -4.2950 h2         1 AJK       0.099700
     34 H11         10.8010     6.7960    -2.8450 hc         1 AJK       0.092200
     35 H12         10.8440     5.9510    -4.4050 hc         1 AJK       0.092200
     36 H13         12.7070     7.6430    -4.3270 ho         1 AJK       0.468000
@<TRIPOS>BOND
     1     1     2 1   
     2     1    23 1   
     3     2     3 1   
     4     2     5 1   
     5     2    24 1   
     6     3     4 1   
     7     3     4 1   
     8     3    25 1   
     9     5     6 1   
    10     5    26 1   
    11     5    27 1   
    12     6     7 1   
    13     6     7 1   
    14     6     8 1   
    15     8     9 1   
    16     9    10 1   
    17     9    12 1   
    18     9    28 1   
    19    10    11 1   
    20    10    11 1   
    21    10    29 1   
    22    12    13 1   
    23    12    30 1   
    24    12    31 1   
    25    13    14 1   
    26    13    14 1   
    27    13    15 1   
    28    15    16 1   
    29    16    17 1   
    30    16    19 1   
    31    16    32 1   
    32    17    18 1   
    33    17    18 1   
    34    17    33 1   
    35    19    20 1   
    36    19    34 1   
    37    19    35 1   
    38    20    21 1   
    39    20    21 1   
    40    20    22 1   
    41    22    36 1   
@<TRIPOS>SUBSTRUCTURE
     1 AJK         1 TEMP              0 ****  ****    0 ROOT
