@<TRIPOS>MOLECULE
ABW
  111   113     1     0     0
SMALL
abcg2


@<TRIPOS>ATOM
      1 O           11.0210    -1.1580    -4.2040 oh         1 ABW      -0.666000
      2 C           12.1350    -0.3900    -3.7440 c3         1 ABW       0.182300
      3 C1          13.4150    -1.2070    -3.9430 c3         1 ABW      -0.075400
      4 C2          13.1840    -2.6960    -3.7040 c3         1 ABW      -0.079400
      5 C3          14.4620    -3.4840    -3.9030 c3         1 ABW      -0.078400
      6 C4          14.1810    -4.9610    -3.6810 c3         1 ABW      -0.078400
      7 C5          15.4520    -5.7620    -3.8790 c3         1 ABW      -0.079400
      8 C6          15.1770    -7.2390    -3.6540 c3         1 ABW      -0.079400
      9 C7          16.4530    -8.0400    -3.8510 c3         1 ABW      -0.079400
     10 C8          16.1910    -9.5220    -3.6280 c3         1 ABW      -0.080400
     11 C9          17.4660   -10.3180    -3.8250 c3         1 ABW      -0.092100
     12 C10         11.9600    -0.0290    -2.2690 c3         1 ABW      -0.165400
     13 C11         10.7050     0.7800    -2.0680 c3         1 ABW       0.593000
     14 O1           9.9210     1.0130    -2.9860 os         1 ABW      -0.512000
     15 O2          10.4250     1.1910    -0.8090 os         1 ABW      -0.458000
     16 C12         11.2370     0.8580     0.3410 c3         1 ABW       0.176300
     17 C13         10.8290    -0.5220     0.8720 c3         1 ABW      -0.091400
     18 C14          9.3380    -0.7960     0.6960 c3         1 ABW      -0.081400
     19 C15          8.9820    -2.1760     1.2100 c3         1 ABW      -0.078400
     20 C16          7.4980    -2.4240     1.0060 c3         1 ABW      -0.078400
     21 C17          7.1330    -3.8030     1.5200 c3         1 ABW      -0.079400
     22 C18          5.6490    -4.0550     1.3250 c3         1 ABW      -0.079400
     23 C19          5.2850    -5.4360     1.8420 c3         1 ABW      -0.079400
     24 C20          3.7990    -5.7010     1.6540 c3         1 ABW      -0.080400
     25 C21          3.4390    -7.0790     2.1710 c3         1 ABW      -0.093100
     26 C22         11.0120     1.9210     1.4190 c3         1 ABW      -0.136400
     27 C23         11.4210     3.2900     0.9160 c3         1 ABW       0.596000
     28 O3          11.8450     3.4850    -0.2190 os         1 ABW      -0.506000
     29 O4          11.2680     4.3350     1.7710 os         1 ABW      -0.474000
     30 C24         10.7430     4.2180     3.1150 c3         1 ABW       0.174300
     31 C25          9.2040     4.2430     3.0930 c3         1 ABW      -0.103400
     32 C26          8.6290     4.4590     1.6980 c3         1 ABW      -0.081400
     33 C27          7.1210     4.4440     1.7020 c3         1 ABW      -0.079400
     34 C28          6.6330     4.6220     0.2730 c3         1 ABW      -0.078400
     35 C29          5.1200     4.6180     0.2540 c3         1 ABW      -0.079400
     36 C30          4.6180     4.8080    -1.1640 c3         1 ABW      -0.079400
     37 C31          3.0990     4.8090    -1.1740 c3         1 ABW      -0.079400
     38 C32          2.5770     5.0000    -2.5900 c3         1 ABW      -0.080400
     39 C33          1.0620     5.0010    -2.5960 c3         1 ABW      -0.093100
     40 C34         11.2990     5.3860     3.9470 c3         1 ABW      -0.136400
     41 C35         12.8080     5.3370     3.9650 c3         1 ABW       0.580000
     42 O5          13.4840     4.4700     3.4200 os         1 ABW      -0.492000
     43 O6          13.3840     6.3220     4.6860 oh         1 ABW      -0.625000
     44 H           10.2240    -0.6000    -4.0950 ho         1 ABW       0.460000
     45 H1          12.1930     0.5210    -4.3490 h1         1 ABW       0.046700
     46 H2          13.7670    -1.0700    -4.9720 hc         1 ABW       0.053700
     47 H3          14.2160    -0.8360    -3.2900 hc         1 ABW       0.053700
     48 H4          12.4320    -3.0760    -4.4070 hc         1 ABW       0.046200
     49 H5          12.7970    -2.8650    -2.6930 hc         1 ABW       0.046200
     50 H6          15.2300    -3.1360    -3.2030 hc         1 ABW       0.040700
     51 H7          14.8440    -3.3260    -4.9190 hc         1 ABW       0.040700
     52 H8          13.4090    -5.3060    -4.3810 hc         1 ABW       0.039700
     53 H9          13.7910    -5.1190    -2.6680 hc         1 ABW       0.039700
     54 H10         16.2220    -5.4130    -3.1800 hc         1 ABW       0.040200
     55 H11         15.8370    -5.6030    -4.8940 hc         1 ABW       0.040200
     56 H12         14.4060    -7.5840    -4.3540 hc         1 ABW       0.039200
     57 H13         14.7900    -7.3940    -2.6400 hc         1 ABW       0.039200
     58 H14         17.2220    -7.6860    -3.1530 hc         1 ABW       0.039700
     59 H15         16.8380    -7.8760    -4.8660 hc         1 ABW       0.039700
     60 H16         15.4240    -9.8740    -4.3280 hc         1 ABW       0.038200
     61 H17         15.8080    -9.6840    -2.6140 hc         1 ABW       0.038200
     62 H18         17.8520   -10.1840    -4.8410 hc         1 ABW       0.032700
     63 H19         17.2760   -11.3820    -3.6650 hc         1 ABW       0.032700
     64 H20         18.2370    -9.9930    -3.1200 hc         1 ABW       0.032700
     65 H21         12.8250     0.5570    -1.9450 hc         1 ABW       0.099200
     66 H22         11.8830    -0.9490    -1.6860 hc         1 ABW       0.099200
     67 H23         12.3000     0.8660     0.0840 h1         1 ABW       0.076700
     68 H24         11.3870    -1.2980     0.3380 hc         1 ABW       0.055700
     69 H25         11.1150    -0.6260     1.9260 hc         1 ABW       0.055700
     70 H26          9.0590    -0.7460    -0.3630 hc         1 ABW       0.049200
     71 H27          8.7460    -0.0370     1.2210 hc         1 ABW       0.049200
     72 H28          9.2380    -2.2570     2.2730 hc         1 ABW       0.041700
     73 H29          9.5640    -2.9340     0.6710 hc         1 ABW       0.041700
     74 H30          7.2450    -2.3420    -0.0590 hc         1 ABW       0.040700
     75 H31          6.9150    -1.6590     1.5350 hc         1 ABW       0.040700
     76 H32          7.3910    -3.8820     2.5830 hc         1 ABW       0.040700
     77 H33          7.7160    -4.5640     0.9860 hc         1 ABW       0.040700
     78 H34          5.3940    -3.9740     0.2610 hc         1 ABW       0.039700
     79 H35          5.0690    -3.2910     1.8570 hc         1 ABW       0.039700
     80 H36          5.5470    -5.5130     2.9050 hc         1 ABW       0.039700
     81 H37          5.8710    -6.1960     1.3100 hc         1 ABW       0.039700
     82 H38          3.5380    -5.6260     0.5910 hc         1 ABW       0.038700
     83 H39          3.2140    -4.9420     2.1870 hc         1 ABW       0.038700
     84 H40          3.9980    -7.8520     1.6340 hc         1 ABW       0.032700
     85 H41          2.3710    -7.2680     2.0350 hc         1 ABW       0.032700
     86 H42          3.6730    -7.1650     3.2370 hc         1 ABW       0.032700
     87 H43         11.6260     1.6680     2.2880 hc         1 ABW       0.097700
     88 H44          9.9570     1.9240     1.7080 hc         1 ABW       0.097700
     89 H45         11.0890     3.2880     3.5770 h1         1 ABW       0.058700
     90 H46          8.8330     3.2930     3.4980 hc         1 ABW       0.058700
     91 H47          8.8150     5.0150     3.7700 hc         1 ABW       0.058700
     92 H48          8.9460     3.6660     1.0170 hc         1 ABW       0.050200
     93 H49          8.9960     5.4060     1.2850 hc         1 ABW       0.050200
     94 H50          6.7400     5.2460     2.3420 hc         1 ABW       0.043200
     95 H51          6.7590     3.4900     2.1030 hc         1 ABW       0.043200
     96 H52          7.0190     3.8140    -0.3640 hc         1 ABW       0.041200
     97 H53          7.0160     5.5640    -0.1400 hc         1 ABW       0.041200
     98 H54          4.7430     5.4220     0.8980 hc         1 ABW       0.041200
     99 H55          4.7480     3.6710     0.6630 hc         1 ABW       0.041200
    100 H56          4.9980     4.0030    -1.8050 hc         1 ABW       0.039700
    101 H57          4.9970     5.7540    -1.5700 hc         1 ABW       0.039700
    102 H58          2.7270     5.6120    -0.5260 hc         1 ABW       0.040200
    103 H59          2.7270     3.8630    -0.7620 hc         1 ABW       0.040200
    104 H60          2.9490     4.1960    -3.2360 hc         1 ABW       0.038200
    105 H61          2.9490     5.9460    -3.0000 hc         1 ABW       0.038200
    106 H62          0.6740     4.0530    -2.2080 hc         1 ABW       0.033033
    107 H63          0.6880     5.1380    -3.6130 hc         1 ABW       0.033033
    108 H64          0.6740     5.8120    -1.9710 hc         1 ABW       0.033033
    109 H65         10.9370     5.3000     4.9790 hc         1 ABW       0.097200
    110 H66         10.9740     6.3450     3.5270 hc         1 ABW       0.097200
    111 H67         12.7780     6.9590     5.1070 ho         1 ABW       0.485000
@<TRIPOS>BOND
     1     1     2 1   
     2     1    44 1   
     3     2     3 1   
     4     2    12 1   
     5     2    45 1   
     6     3     4 1   
     7     3    46 1   
     8     3    47 1   
     9     4     5 1   
    10     4    48 1   
    11     4    49 1   
    12     5     6 1   
    13     5    50 1   
    14     5    51 1   
    15     6     7 1   
    16     6    52 1   
    17     6    53 1   
    18     7     8 1   
    19     7    54 1   
    20     7    55 1   
    21     8     9 1   
    22     8    56 1   
    23     8    57 1   
    24     9    10 1   
    25     9    58 1   
    26     9    59 1   
    27    10    11 1   
    28    10    60 1   
    29    10    61 1   
    30    11    62 1   
    31    11    63 1   
    32    11    64 1   
    33    12    13 1   
    34    12    65 1   
    35    12    66 1   
    36    13    14 1   
    37    13    14 1   
    38    13    15 1   
    39    15    16 1   
    40    16    17 1   
    41    16    26 1   
    42    16    67 1   
    43    17    18 1   
    44    17    68 1   
    45    17    69 1   
    46    18    19 1   
    47    18    70 1   
    48    18    71 1   
    49    19    20 1   
    50    19    72 1   
    51    19    73 1   
    52    20    21 1   
    53    20    74 1   
    54    20    75 1   
    55    21    22 1   
    56    21    76 1   
    57    21    77 1   
    58    22    23 1   
    59    22    78 1   
    60    22    79 1   
    61    23    24 1   
    62    23    80 1   
    63    23    81 1   
    64    24    25 1   
    65    24    82 1   
    66    24    83 1   
    67    25    84 1   
    68    25    85 1   
    69    25    86 1   
    70    26    27 1   
    71    26    87 1   
    72    26    88 1   
    73    27    28 1   
    74    27    28 1   
    75    27    29 1   
    76    29    30 1   
    77    30    31 1   
    78    30    40 1   
    79    30    89 1   
    80    31    32 1   
    81    31    90 1   
    82    31    91 1   
    83    32    33 1   
    84    32    92 1   
    85    32    93 1   
    86    33    34 1   
    87    33    94 1   
    88    33    95 1   
    89    34    35 1   
    90    34    96 1   
    91    34    97 1   
    92    35    36 1   
    93    35    98 1   
    94    35    99 1   
    95    36    37 1   
    96    36   100 1   
    97    36   101 1   
    98    37    38 1   
    99    37   102 1   
   100    37   103 1   
   101    38    39 1   
   102    38   104 1   
   103    38   105 1   
   104    39   106 1   
   105    39   107 1   
   106    39   108 1   
   107    40    41 1   
   108    40   109 1   
   109    40   110 1   
   110    41    42 1   
   111    41    42 1   
   112    41    43 1   
   113    43   111 1   
@<TRIPOS>SUBSTRUCTURE
     1 ABW         1 TEMP              0 ****  ****    0 ROOT
