@<TRIPOS>MOLECULE
ALP
   81    95     1     0     0
SMALL
abcg2


@<TRIPOS>ATOM
      1 O           13.7220     0.9570    -3.5560 oh         1 ALP      -0.670000
      2 C           14.1250     2.0050    -2.6700 c3         1 ALP       0.183300
      3 C1          15.6390     2.2350    -2.8040 c3         1 ALP      -0.084400
      4 C2          16.1930     1.7480    -4.1440 c3         1 ALP       0.154600
      5 O1          17.6050     1.9790    -4.1710 os         1 ALP      -0.405000
      6 C3          18.2330     1.6020    -5.3280 c3         1 ALP       0.182000
      7 C4          17.7260     1.8150    -6.6120 c3         1 ALP      -0.157700
      8 C5          18.5000     1.4970    -7.7340 c3         1 ALP      -0.048700
      9 C6          19.7760     0.9620    -7.5720 c3         1 ALP       0.052000
     10 Cl          20.7290     0.5850    -8.9540 cl         1 ALP      -0.170000
     11 C7          20.2870     0.7420    -6.2950 c3         1 ALP      -0.053700
     12 C8          19.5140     1.0650    -5.1760 c3         1 ALP      -0.111700
     13 C9          13.7450     1.6090    -1.2420 c3         1 ALP      -0.165400
     14 C10         12.2500     1.3960    -1.1300 c3         1 ALP       0.594000
     15 O2          11.4990     1.4980    -2.0980 os         1 ALP      -0.513000
     16 O3          11.7530     0.9840     0.0640 os         1 ALP      -0.460000
     17 C11         12.5800     0.6920     1.2110 c3         1 ALP       0.181300
     18 C12         12.6620    -0.8350     1.4010 c3         1 ALP      -0.101400
     19 C13         12.3230    -1.6290     0.1370 c3         1 ALP       0.150600
     20 O4          12.4300    -3.0230     0.4200 os         1 ALP      -0.400000
     21 C14         12.1860    -3.8500    -0.6460 c3         1 ALP       0.176000
     22 C15         12.6300    -3.6230    -1.9510 c3         1 ALP      -0.155700
     23 C16         12.4180    -4.5900    -2.9420 c3         1 ALP      -0.047700
     24 C17         11.7590    -5.7770    -2.6280 c3         1 ALP       0.055000
     25 Cl1         11.5120    -6.9680    -3.8440 cl         1 ALP      -0.166000
     26 C18         11.3100    -6.0070    -1.3300 c3         1 ALP      -0.053700
     27 C19         11.5260    -5.0430    -0.3410 c3         1 ALP      -0.108700
     28 C20         11.9530     1.3750     2.4310 c3         1 ALP      -0.147400
     29 C21         11.8740     2.8750     2.2290 c3         1 ALP       0.598000
     30 O5          12.2480     3.4310     1.1990 os         1 ALP      -0.513000
     31 O6          11.3230     3.6170     3.2240 os         1 ALP      -0.453000
     32 C22         10.7980     3.0730     4.4560 c3         1 ALP       0.180300
     33 C23          9.2580     3.1080     4.4060 c3         1 ALP      -0.100400
     34 C24          8.6920     3.4120     3.0140 c3         1 ALP       0.150600
     35 O7           7.2670     3.4300     3.0850 os         1 ALP      -0.403000
     36 C25          6.6310     3.6540     1.8920 c3         1 ALP       0.172000
     37 C26          7.0100     3.1010     0.6660 c3         1 ALP      -0.152700
     38 C27          6.2220     3.3120    -0.4730 c3         1 ALP      -0.045700
     39 C28          5.0610     4.0770    -0.3850 c3         1 ALP       0.055000
     40 Cl2          4.0880     4.3240    -1.7820 cl         1 ALP      -0.165000
     41 C29          4.6800     4.6350     0.8320 c3         1 ALP      -0.054700
     42 C30          5.4650     4.4190     1.9690 c3         1 ALP      -0.108700
     43 C31         11.3590     3.9100     5.6200 c3         1 ALP      -0.150400
     44 C32         12.8720     3.8580     5.6180 c3         1 ALP       0.589000
     45 O8          13.5430     3.2100     4.8200 os         1 ALP      -0.513000
     46 O9          13.4540     4.5680     6.6060 oh         1 ALP      -0.610000
     47 H           12.7410     0.9420    -3.5400 ho         1 ALP       0.465000
     48 H1          13.5960     2.9190    -2.9670 h1         1 ALP       0.052700
     49 H2          15.8590     3.3040    -2.6710 hc         1 ALP       0.068700
     50 H3          16.1870     1.7420    -1.9910 hc         1 ALP       0.068700
     51 H4          15.6800     2.2880    -4.9450 h1         1 ALP       0.050700
     52 H5          16.0200     0.6700    -4.2460 h1         1 ALP       0.050700
     53 H6          16.7500     2.2620    -6.7710 hc         1 ALP       0.104700
     54 H7          18.1080     1.6880    -8.7300 hc         1 ALP       0.107700
     55 H8          21.2860     0.3360    -6.1640 hc         1 ALP       0.109700
     56 H9          19.9150     0.9010    -4.1790 hc         1 ALP       0.113700
     57 H10         14.0610     2.3950    -0.5500 hc         1 ALP       0.100700
     58 H11         14.2460     0.6630    -1.0010 hc         1 ALP       0.100700
     59 H12         13.5920     1.0870     1.0940 h1         1 ALP       0.078700
     60 H13         13.6740    -1.0950     1.7430 hc         1 ALP       0.079200
     61 H14         12.0060    -1.1670     2.2150 hc         1 ALP       0.079200
     62 H15         13.0180    -1.3340    -0.6530 h1         1 ALP       0.045700
     63 H16         11.2920    -1.4150    -0.1700 h1         1 ALP       0.045700
     64 H17         13.1760    -2.7270    -2.2250 hc         1 ALP       0.102700
     65 H18         12.7870    -4.4180    -3.9500 hc         1 ALP       0.110700
     66 H19         10.8050    -6.9350    -1.0780 hc         1 ALP       0.110700
     67 H20         11.1820    -5.2250     0.6730 hc         1 ALP       0.114700
     68 H21         12.5770     1.1610     3.3040 hc         1 ALP       0.110700
     69 H22         10.9390     0.9870     2.5830 hc         1 ALP       0.110700
     70 H23         11.1200     2.0390     4.6080 h1         1 ALP       0.078700
     71 H24          8.8720     2.1390     4.7510 hc         1 ALP       0.075700
     72 H25          8.8560     3.8300     5.1280 hc         1 ALP       0.075700
     73 H26          9.0400     2.6380     2.3240 h1         1 ALP       0.047700
     74 H27          9.0390     4.3980     2.6810 h1         1 ALP       0.047700
     75 H28          7.8900     2.4740     0.5640 hc         1 ALP       0.106700
     76 H29          6.5110     2.8610    -1.4190 hc         1 ALP       0.114700
     77 H30          3.7700     5.2240     0.9080 hc         1 ALP       0.110700
     78 H31          5.1630     4.8490     2.9200 hc         1 ALP       0.113700
     79 H32         10.9970     3.5030     6.5710 hc         1 ALP       0.096200
     80 H33         11.0430     4.9550     5.5250 hc         1 ALP       0.096200
     81 H34         12.8550     5.0430     7.2120 ho         1 ALP       0.469000
@<TRIPOS>BOND
     1     1     2 1   
     2     1    47 1   
     3     2     3 1   
     4     2    13 1   
     5     2    48 1   
     6     3     4 1   
     7     3    49 1   
     8     3    50 1   
     9     4     5 1   
    10     4    51 1   
    11     4    52 1   
    12     5     6 1   
    13     6     7 1   
    14     6     7 1   
    15     6    12 1   
    16     7     8 1   
    17     7    53 1   
    18     8     9 1   
    19     8     9 1   
    20     8    54 1   
    21     9    10 1   
    22     9    11 1   
    23    11    12 1   
    24    11    12 1   
    25    11    55 1   
    26    12    56 1   
    27    13    14 1   
    28    13    57 1   
    29    13    58 1   
    30    14    15 1   
    31    14    15 1   
    32    14    16 1   
    33    16    17 1   
    34    17    18 1   
    35    17    28 1   
    36    17    59 1   
    37    18    19 1   
    38    18    60 1   
    39    18    61 1   
    40    19    20 1   
    41    19    62 1   
    42    19    63 1   
    43    20    21 1   
    44    21    22 1   
    45    21    22 1   
    46    21    27 1   
    47    22    23 1   
    48    22    64 1   
    49    23    24 1   
    50    23    24 1   
    51    23    65 1   
    52    24    25 1   
    53    24    26 1   
    54    26    27 1   
    55    26    27 1   
    56    26    66 1   
    57    27    67 1   
    58    28    29 1   
    59    28    68 1   
    60    28    69 1   
    61    29    30 1   
    62    29    30 1   
    63    29    31 1   
    64    31    32 1   
    65    32    33 1   
    66    32    43 1   
    67    32    70 1   
    68    33    34 1   
    69    33    71 1   
    70    33    72 1   
    71    34    35 1   
    72    34    73 1   
    73    34    74 1   
    74    35    36 1   
    75    36    37 1   
    76    36    37 1   
    77    36    42 1   
    78    37    38 1   
    79    37    75 1   
    80    38    39 1   
    81    38    39 1   
    82    38    76 1   
    83    39    40 1   
    84    39    41 1   
    85    41    42 1   
    86    41    42 1   
    87    41    77 1   
    88    42    78 1   
    89    43    44 1   
    90    43    79 1   
    91    43    80 1   
    92    44    45 1   
    93    44    45 1   
    94    44    46 1   
    95    46    81 1   
@<TRIPOS>SUBSTRUCTURE
     1 ALP         1 TEMP              0 ****  ****    0 ROOT
