@<TRIPOS>MOLECULE
ACU
   69    74     1     0     0
SMALL
abcg2


@<TRIPOS>ATOM
      1 O            7.2640     1.7410     3.4590 oh         1 ACU      -0.667000
      2 C            8.6970     1.7410     3.4690 c3         1 ACU       0.182300
      3 C1           9.1470     3.1760     3.1020 c3         1 ACU      -0.076400
      4 C2           9.8470     3.2950     1.7390 c3         1 ACU      -0.076400
      5 C3          10.3000     4.7080     1.4290 c3         1 ACU      -0.055400
      6 C4          10.9930     4.7410     0.0970 c3         1 ACU      -0.119700
      7 C5          11.4910     5.8740    -0.4070 c3         1 ACU      -0.145400
      8 C6           9.1840     0.7230     2.4570 c3         1 ACU      -0.166400
      9 C7           8.7240    -0.6800     2.6730 c3         1 ACU       0.595000
     10 O1           8.0130    -0.9940     3.6220 os         1 ACU      -0.518000
     11 O2           9.0590    -1.5710     1.7060 os         1 ACU      -0.457000
     12 C8           9.8540    -1.2510     0.5260 c3         1 ACU       0.179300
     13 C9           9.0230    -0.4130    -0.4730 c3         1 ACU      -0.090400
     14 C10          7.6660    -1.0410    -0.8060 c3         1 ACU      -0.078400
     15 C11          6.8210    -0.0680    -1.6120 c3         1 ACU      -0.055400
     16 C12          5.5340    -0.7090    -2.0230 c3         1 ACU      -0.121700
     17 C13          4.6350    -0.0650    -2.7740 c3         1 ACU      -0.145400
     18 C14         10.1840    -2.5680    -0.1730 c3         1 ACU      -0.145400
     19 C15         10.9820    -3.5580     0.6260 c3         1 ACU       0.599000
     20 O3          11.4010    -3.3070     1.7510 os         1 ACU      -0.515000
     21 O4          11.1830    -4.7830     0.0630 os         1 ACU      -0.454000
     22 C16         10.7710    -5.1880    -1.2770 c3         1 ACU       0.178300
     23 C17          9.2440    -5.3390    -1.3490 c3         1 ACU      -0.091400
     24 C18          8.7110    -6.2240    -0.2260 c3         1 ACU      -0.077400
     25 C19          7.1930    -6.1910    -0.1990 c3         1 ACU      -0.054400
     26 C20          6.6760    -7.1410     0.8320 c3         1 ACU      -0.125700
     27 C21          5.3670    -7.3250     1.0270 c3         1 ACU      -0.136400
     28 C22         11.4030    -6.5610    -1.6080 c3         1 ACU      -0.148400
     29 C23         12.9040    -6.5100    -1.6390 c3         1 ACU       0.587000
     30 O5          13.5710    -5.4990    -1.4460 os         1 ACU      -0.510000
     31 O6          13.4800    -7.6970    -1.9340 oh         1 ACU      -0.615000
     32 H            6.9800     0.8340     3.7030 ho         1 ACU       0.461000
     33 H1           9.0260     1.4810     4.4790 h1         1 ACU       0.046700
     34 H2           8.2850     3.8560     3.1150 hc         1 ACU       0.053200
     35 H3           9.8380     3.5260     3.8770 hc         1 ACU       0.053200
     36 H4           9.1700     2.9700     0.9380 hc         1 ACU       0.049200
     37 H5          10.7330     2.6490     1.7160 hc         1 ACU       0.049200
     38 H6          10.9870     5.0430     2.2130 hc         1 ACU       0.047200
     39 H7           9.4280     5.3700     1.4120 hc         1 ACU       0.047200
     40 H8          11.0930     3.8180    -0.4720 hc         1 ACU       0.077700
     41 H9          11.4030     6.8060     0.1410 hc         1 ACU       0.071200
     42 H10         11.9890     5.8860    -1.3700 hc         1 ACU       0.071200
     43 H11         10.2730     0.7290     2.3710 hc         1 ACU       0.100200
     44 H12          8.6880     1.0480     1.5560 hc         1 ACU       0.100200
     45 H13         10.7820    -0.7510     0.8210 h1         1 ACU       0.073700
     46 H14          8.8170     0.5860    -0.1090 hc         1 ACU       0.055700
     47 H15          9.6030    -0.2300    -1.3830 hc         1 ACU       0.055700
     48 H16          7.1270    -1.3200     0.1090 hc         1 ACU       0.053200
     49 H17          7.8070    -1.9540    -1.3940 hc         1 ACU       0.053200
     50 H18          7.3850     0.2380    -2.5010 hc         1 ACU       0.047700
     51 H19          6.6170     0.8260    -1.0090 hc         1 ACU       0.047700
     52 H20          5.3270    -1.7270    -1.6990 hc         1 ACU       0.081700
     53 H21          4.8130     0.9540    -3.1030 hc         1 ACU       0.071700
     54 H22          3.7070    -0.5440    -3.0630 hc         1 ACU       0.071700
     55 H23         10.6780    -2.3780    -1.1310 hc         1 ACU       0.109200
     56 H24          9.2140    -3.0170    -0.3060 hc         1 ACU       0.109200
     57 H25         11.1280    -4.4450    -1.9990 h1         1 ACU       0.075700
     58 H26          8.7300    -4.3860    -1.2870 hc         1 ACU       0.056700
     59 H27          8.9410    -5.7140    -2.3320 hc         1 ACU       0.056700
     60 H28          9.0940    -5.8970     0.7490 hc         1 ACU       0.051200
     61 H29          9.0500    -7.2540    -0.3780 hc         1 ACU       0.051200
     62 H30          6.8150    -6.4700    -1.1890 hc         1 ACU       0.048200
     63 H31          6.8540    -5.1730     0.0250 hc         1 ACU       0.048200
     64 H32          7.3890    -7.6950     1.4410 hc         1 ACU       0.077700
     65 H33          4.6340    -6.7780     0.4420 hc         1 ACU       0.073700
     66 H34          5.0110    -8.0180     1.7800 hc         1 ACU       0.073700
     67 H35         11.0500    -6.8860    -2.5960 hc         1 ACU       0.093700
     68 H36         11.1210    -7.3130    -0.8640 hc         1 ACU       0.093700
     69 H37         12.8730    -8.4480    -2.0790 ho         1 ACU       0.468000
@<TRIPOS>BOND
     1     1     2 1   
     2     1    32 1   
     3     2     3 1   
     4     2     8 1   
     5     2    33 1   
     6     3     4 1   
     7     3    34 1   
     8     3    35 1   
     9     4     5 1   
    10     4    36 1   
    11     4    37 1   
    12     5     6 1   
    13     5    38 1   
    14     5    39 1   
    15     6     7 1   
    16     6     7 1   
    17     6    40 1   
    18     7    41 1   
    19     7    42 1   
    20     8     9 1   
    21     8    43 1   
    22     8    44 1   
    23     9    10 1   
    24     9    10 1   
    25     9    11 1   
    26    11    12 1   
    27    12    13 1   
    28    12    18 1   
    29    12    45 1   
    30    13    14 1   
    31    13    46 1   
    32    13    47 1   
    33    14    15 1   
    34    14    48 1   
    35    14    49 1   
    36    15    16 1   
    37    15    50 1   
    38    15    51 1   
    39    16    17 1   
    40    16    17 1   
    41    16    52 1   
    42    17    53 1   
    43    17    54 1   
    44    18    19 1   
    45    18    55 1   
    46    18    56 1   
    47    19    20 1   
    48    19    20 1   
    49    19    21 1   
    50    21    22 1   
    51    22    23 1   
    52    22    28 1   
    53    22    57 1   
    54    23    24 1   
    55    23    58 1   
    56    23    59 1   
    57    24    25 1   
    58    24    60 1   
    59    24    61 1   
    60    25    26 1   
    61    25    62 1   
    62    25    63 1   
    63    26    27 1   
    64    26    27 1   
    65    26    64 1   
    66    27    65 1   
    67    27    66 1   
    68    28    29 1   
    69    28    67 1   
    70    28    68 1   
    71    29    30 1   
    72    29    30 1   
    73    29    31 1   
    74    31    69 1   
@<TRIPOS>SUBSTRUCTURE
     1 ACU         1 TEMP              0 ****  ****    0 ROOT
