@<TRIPOS>MOLECULE
AHW
   99   113     1     0     0
SMALL
abcg2


@<TRIPOS>ATOM
      1 O            6.3000    -0.1300     0.6280 oh         1 AHW      -0.665000
      2 C            7.4690    -0.5550     1.2930 c3         1 AHW       0.182300
      3 C1           7.4140    -0.4870     2.8410 c3         1 AHW      -0.073400
      4 C2           6.2620     0.2830     3.3440 c3         1 AHW      -0.087400
      5 C3           6.2950     0.2610     4.8590 c3         1 AHW      -0.066400
      6 C4           5.0450     0.9830     5.2790 c3         1 AHW       0.011600
      7 S            4.9400     0.9390     7.0730 ss         1 AHW      -0.241000
      8 C5           3.4950     1.9310     7.3660 c3         1 AHW       0.011000
      9 C6           2.5540     2.2960     6.3980 c3         1 AHW      -0.109700
     10 C7           1.5170     3.1740     6.7220 c3         1 AHW      -0.078200
     11 C8           1.3600     3.6120     8.0340 c3         1 AHW      -0.102700
     12 C9           2.2650     3.2150     9.0130 c3         1 AHW      -0.078200
     13 C10          3.3310     2.3850     8.6760 c3         1 AHW      -0.083700
     14 C11          8.6220     0.3130     0.8160 c3         1 AHW      -0.160400
     15 C12          9.0710    -0.0390    -0.6050 c3         1 AHW       0.584000
     16 O1           8.3490    -0.7040    -1.3500 os         1 AHW      -0.514000
     17 O2          10.3230     0.2900    -1.0120 os         1 AHW      -0.447000
     18 C13         11.4690     0.9230    -0.3310 c3         1 AHW       0.184300
     19 C14         11.7550     0.3770     1.1060 c3         1 AHW      -0.110400
     20 C15         11.2120    -1.0590     1.3270 c3         1 AHW      -0.077400
     21 C16         10.7920    -1.4040     2.7730 c3         1 AHW      -0.071400
     22 C17          9.7450    -2.5520     2.8730 c3         1 AHW       0.013600
     23 S1           9.4610    -2.9960     4.6300 ss         1 AHW      -0.240000
     24 C18          7.9440    -3.9680     4.6760 c3         1 AHW       0.006000
     25 C19          7.2380    -4.4640     3.5750 c3         1 AHW      -0.104700
     26 C20          6.0790    -5.2390     3.7570 c3         1 AHW      -0.073700
     27 C21          5.6550    -5.5900     5.0370 c3         1 AHW      -0.100700
     28 C22          6.3370    -5.0950     6.1410 c3         1 AHW      -0.073700
     29 C23          7.4560    -4.2740     5.9590 c3         1 AHW      -0.083700
     30 C24         11.2760     2.4460    -0.4450 c3         1 AHW      -0.163400
     31 C25         11.3880     2.9110    -1.8920 c3         1 AHW       0.594000
     32 O3          11.6880     2.1580    -2.8160 os         1 AHW      -0.487000
     33 O4          11.1320     4.2180    -2.1580 os         1 AHW      -0.458000
     34 C26         10.7130     5.1880    -1.1690 c3         1 AHW       0.180300
     35 C27          9.1700     5.1940    -1.1890 c3         1 AHW      -0.096400
     36 C28          8.5760     6.5920    -1.3160 c3         1 AHW      -0.078400
     37 C29          7.0620     6.5900    -1.3270 c3         1 AHW      -0.071400
     38 C30          6.5580     8.0230    -1.4930 c3         1 AHW       0.010600
     39 S2           4.7470     7.9540    -1.5810 ss         1 AHW      -0.235000
     40 C31          4.2560     9.6650    -1.6450 c3         1 AHW       0.003000
     41 C32          5.1040    10.7400    -1.9230 c3         1 AHW      -0.104700
     42 C33          4.6280    12.0540    -1.8410 c3         1 AHW      -0.073200
     43 C34          3.2820    12.2980    -1.5770 c3         1 AHW      -0.097700
     44 C35          2.4180    11.2330    -1.3480 c3         1 AHW      -0.073200
     45 C36          2.9060     9.9260    -1.3750 c3         1 AHW      -0.081700
     46 C37         11.3450     6.5500    -1.5150 c3         1 AHW      -0.151400
     47 C38         12.8360     6.5190    -1.4670 c3         1 AHW       0.591000
     48 O5          13.5070     5.5090    -1.1720 os         1 AHW      -0.524000
     49 O6          13.4170     7.7050    -1.7200 oh         1 AHW      -0.621000
     50 H            6.5090    -0.2600    -0.3220 ho         1 AHW       0.462000
     51 H1           7.6290    -1.6050     1.0080 h1         1 AHW       0.045700
     52 H2           7.3000    -1.4770     3.2920 hc         1 AHW       0.051700
     53 H3           8.3270    -0.0660     3.2910 hc         1 AHW       0.051700
     54 H4           5.3600    -0.2140     2.9770 hc         1 AHW       0.059700
     55 H5           6.3240     1.3020     2.9530 hc         1 AHW       0.059700
     56 H6           7.2070     0.7440     5.2400 hc         1 AHW       0.052200
     57 H7           6.3030    -0.7740     5.2340 hc         1 AHW       0.052200
     58 H8           4.1850     0.4680     4.8380 h1         1 AHW       0.075200
     59 H9           5.0820     2.0080     4.8900 h1         1 AHW       0.075200
     60 H10          2.5990     1.9170     5.3810 hc         1 AHW       0.096700
     61 H11          0.8380     3.5200     5.9480 hc         1 AHW       0.088200
     62 H12          0.5280     4.2600     8.2950 hc         1 AHW       0.091700
     63 H13          2.1580     3.5600    10.0360 hc         1 AHW       0.088200
     64 H14          4.0440     2.0950     9.4450 hc         1 AHW       0.102700
     65 H15          9.3040    -0.0100     1.5630 hc         1 AHW       0.091700
     66 H16          8.6120     1.3770     1.0260 hc         1 AHW       0.091700
     67 H17         12.3550     0.6450    -0.9210 h1         1 AHW       0.103700
     68 H18         12.8270     0.4070     1.3420 hc         1 AHW       0.060700
     69 H19         11.2860     1.0850     1.8070 hc         1 AHW       0.060700
     70 H20         11.5770    -1.8940     0.7260 hc         1 AHW       0.054700
     71 H21         10.3240    -1.0470     0.7630 hc         1 AHW       0.054700
     72 H22         10.4040    -0.4980     3.2700 hc         1 AHW       0.055700
     73 H23         11.6870    -1.6840     3.3200 hc         1 AHW       0.055700
     74 H24         10.0130    -3.4100     2.2610 h1         1 AHW       0.068700
     75 H25          8.7940    -2.2690     2.4640 h1         1 AHW       0.068700
     76 H26          7.5690    -4.2820     2.5580 hc         1 AHW       0.090700
     77 H27          5.5090    -5.5830     2.8960 hc         1 AHW       0.093200
     78 H28          4.8000    -6.2490     5.1730 hc         1 AHW       0.092700
     79 H29          6.0040    -5.3460     7.1460 hc         1 AHW       0.093200
     80 H30          7.9600    -3.8880     6.8430 hc         1 AHW       0.101700
     81 H31         12.0350     2.9670     0.1460 hc         1 AHW       0.099200
     82 H32         10.2720     2.6960    -0.0890 hc         1 AHW       0.099200
     83 H33         11.0620     4.8990    -0.1740 h1         1 AHW       0.074700
     84 H34          8.7910     4.5610    -2.0030 hc         1 AHW       0.066700
     85 H35          8.8070     4.7300    -0.2630 hc         1 AHW       0.066700
     86 H36          8.9160     7.0490    -2.2530 hc         1 AHW       0.043200
     87 H37          8.9200     7.2150    -0.4830 hc         1 AHW       0.043200
     88 H38          6.6980     6.1510    -0.3910 hc         1 AHW       0.060200
     89 H39          6.7150     5.9620    -2.1570 hc         1 AHW       0.060200
     90 H40          6.9570     8.4520    -2.4180 h1         1 AHW       0.067700
     91 H41          6.8960     8.6400    -0.6510 h1         1 AHW       0.067700
     92 H42          6.1390    10.5890    -2.2090 hc         1 AHW       0.088700
     93 H43          5.3100    12.8890    -1.9770 hc         1 AHW       0.094700
     94 H44          2.9060    13.3180    -1.5540 hc         1 AHW       0.094700
     95 H45          1.3690    11.4130    -1.1300 hc         1 AHW       0.094700
     96 H46          2.2190     9.1050    -1.1780 hc         1 AHW       0.102700
     97 H47         11.0300     7.2940    -0.7730 hc         1 AHW       0.098200
     98 H48         11.0480     6.8720    -2.5200 hc         1 AHW       0.098200
     99 H49         12.8050     8.4420    -1.9200 ho         1 AHW       0.475000
@<TRIPOS>BOND
     1     1     2 1   
     2     1    50 1   
     3     2     3 1   
     4     2    14 1   
     5     2    51 1   
     6     3     4 1   
     7     3    52 1   
     8     3    53 1   
     9     4     5 1   
    10     4    54 1   
    11     4    55 1   
    12     5     6 1   
    13     5    56 1   
    14     5    57 1   
    15     6     7 1   
    16     6    58 1   
    17     6    59 1   
    18     7     8 1   
    19     8     9 1   
    20     8     9 1   
    21     8    13 1   
    22     9    10 1   
    23     9    60 1   
    24    10    11 1   
    25    10    11 1   
    26    10    61 1   
    27    11    12 1   
    28    11    62 1   
    29    12    13 1   
    30    12    13 1   
    31    12    63 1   
    32    13    64 1   
    33    14    15 1   
    34    14    65 1   
    35    14    66 1   
    36    15    16 1   
    37    15    16 1   
    38    15    17 1   
    39    17    18 1   
    40    18    19 1   
    41    18    30 1   
    42    18    67 1   
    43    19    20 1   
    44    19    68 1   
    45    19    69 1   
    46    20    21 1   
    47    20    70 1   
    48    20    71 1   
    49    21    22 1   
    50    21    72 1   
    51    21    73 1   
    52    22    23 1   
    53    22    74 1   
    54    22    75 1   
    55    23    24 1   
    56    24    25 1   
    57    24    25 1   
    58    24    29 1   
    59    25    26 1   
    60    25    76 1   
    61    26    27 1   
    62    26    27 1   
    63    26    77 1   
    64    27    28 1   
    65    27    78 1   
    66    28    29 1   
    67    28    29 1   
    68    28    79 1   
    69    29    80 1   
    70    30    31 1   
    71    30    81 1   
    72    30    82 1   
    73    31    32 1   
    74    31    32 1   
    75    31    33 1   
    76    33    34 1   
    77    34    35 1   
    78    34    46 1   
    79    34    83 1   
    80    35    36 1   
    81    35    84 1   
    82    35    85 1   
    83    36    37 1   
    84    36    86 1   
    85    36    87 1   
    86    37    38 1   
    87    37    88 1   
    88    37    89 1   
    89    38    39 1   
    90    38    90 1   
    91    38    91 1   
    92    39    40 1   
    93    40    41 1   
    94    40    41 1   
    95    40    45 1   
    96    41    42 1   
    97    41    92 1   
    98    42    43 1   
    99    42    43 1   
   100    42    93 1   
   101    43    44 1   
   102    43    94 1   
   103    44    45 1   
   104    44    45 1   
   105    44    95 1   
   106    45    96 1   
   107    46    47 1   
   108    46    97 1   
   109    46    98 1   
   110    47    48 1   
   111    47    48 1   
   112    47    49 1   
   113    49    99 1   
@<TRIPOS>SUBSTRUCTURE
     1 AHW         1 TEMP              0 ****  ****    0 ROOT
