@<TRIPOS>MOLECULE
AGM
   81    95     1     0     0
SMALL
abcg2


@<TRIPOS>ATOM
      1 O           13.0660     2.9490    -3.6010 oh         1 AGM      -0.670000
      2 C           13.0340     3.6060    -2.3320 c3         1 AGM       0.185300
      3 C1          14.3310     4.4300    -2.1590 c3         1 AGM      -0.083400
      4 C2          15.3290     3.7720    -1.1960 c3         1 AGM       0.155600
      5 O1          16.5410     4.5050    -1.1160 os         1 AGM      -0.400000
      6 C3          17.4700     3.9360    -0.2800 c3         1 AGM       0.232000
      7 C4          17.7520     2.5680    -0.1990 c3         1 AGM      -0.223700
      8 C5          18.8300     2.1370     0.5730 c3         1 AGM       0.241000
      9 F           19.1350     0.8320     0.6040 f          1 AGM      -0.188500
     10 C6          19.6140     3.0350     1.2830 c3         1 AGM      -0.204700
     11 C7          19.2950     4.3830     1.2250 c3         1 AGM       0.241000
     12 F1          20.0360     5.2660     1.9060 f          1 AGM      -0.188500
     13 C8          18.2350     4.8400     0.4500 c3         1 AGM      -0.176700
     14 C9          12.8890     2.5180    -1.2720 c3         1 AGM      -0.167400
     15 C10         11.5340     1.8540    -1.2840 c3         1 AGM       0.596000
     16 O2          10.7360     2.0100    -2.2040 os         1 AGM      -0.507000
     17 O3          11.2500     1.0000    -0.2590 os         1 AGM      -0.464000
     18 C11         12.1090     0.8210     0.8960 c3         1 AGM       0.181300
     19 C12         12.0120    -0.6830     1.3020 c3         1 AGM      -0.099400
     20 C13         11.1030    -0.9330     2.5130 c3         1 AGM       0.151600
     21 O4          11.0490    -2.3130     2.8520 os         1 AGM      -0.398000
     22 C14         10.2330    -2.5980     3.9200 c3         1 AGM       0.230000
     23 C15          8.9850    -2.0150     4.1600 c3         1 AGM      -0.222700
     24 C16          8.1920    -2.4930     5.2060 c3         1 AGM       0.241500
     25 F2           6.9770    -1.9620     5.4020 f          1 AGM      -0.187000
     26 C17          8.6240    -3.5220     6.0290 c3         1 AGM      -0.201700
     27 C18          9.8770    -4.0700     5.7990 c3         1 AGM       0.241500
     28 F3          10.3170    -5.0600     6.5860 f          1 AGM      -0.187000
     29 C19         10.6800    -3.6220     4.7530 c3         1 AGM      -0.173700
     30 C20         11.6580     1.7650     2.0230 c3         1 AGM      -0.149400
     31 C21         11.5560     3.2410     1.7070 c3         1 AGM       0.597000
     32 O5          11.4420     3.7230     0.5850 os         1 AGM      -0.509000
     33 O6          11.3890     4.0940     2.7230 os         1 AGM      -0.454000
     34 C22         10.8180     3.6990     3.9710 c3         1 AGM       0.181300
     35 C23          9.2780     3.7280     3.8570 c3         1 AGM      -0.099400
     36 C24          8.7240     3.9210     2.4320 c3         1 AGM       0.151600
     37 O7           7.2990     3.9510     2.4870 os         1 AGM      -0.399000
     38 C25          6.6650     4.0620     1.2760 c3         1 AGM       0.225000
     39 C26          7.0390     3.4120     0.0970 c3         1 AGM      -0.220700
     40 C27          6.2240     3.5190    -1.0340 c3         1 AGM       0.244000
     41 F4           6.5570     2.8570    -2.1500 f          1 AGM      -0.183500
     42 C28          5.0590     4.2730    -1.0200 c3         1 AGM      -0.200700
     43 C29          4.7120     4.9290     0.1490 c3         1 AGM       0.244000
     44 F5           3.5940     5.6660     0.1860 f          1 AGM      -0.183500
     45 C30          5.4950     4.8230     1.2950 c3         1 AGM      -0.174700
     46 C31         11.3860     4.7110     4.9680 c3         1 AGM      -0.153400
     47 C32         12.9070     4.6540     4.9290 c3         1 AGM       0.589000
     48 O8          13.5610     3.8900     4.2310 os         1 AGM      -0.513000
     49 O9          13.5080     5.5260     5.7650 oh         1 AGM      -0.609000
     50 H           12.1960     2.5010    -3.6870 ho         1 AGM       0.468000
     51 H1          12.1780     4.2950    -2.3420 h1         1 AGM       0.056700
     52 H2          14.8140     4.5950    -3.1300 hc         1 AGM       0.070200
     53 H3          14.0870     5.4290    -1.7730 hc         1 AGM       0.070200
     54 H4          15.5180     2.7590    -1.5580 h1         1 AGM       0.052700
     55 H5          14.9090     3.7430    -0.1830 h1         1 AGM       0.052700
     56 H6          17.1980     1.8180    -0.7520 hc         1 AGM       0.120700
     57 H7          20.4640     2.6930     1.8600 hc         1 AGM       0.126700
     58 H8          18.0140     5.9020     0.4070 hc         1 AGM       0.129700
     59 H9          13.0890     2.9930    -0.3200 hc         1 AGM       0.100200
     60 H10         13.6350     1.7320    -1.4050 hc         1 AGM       0.100200
     61 H11         13.1530     1.0070     0.6290 h1         1 AGM       0.080700
     62 H12         11.6610    -1.2950     0.4580 hc         1 AGM       0.075200
     63 H13         13.0150    -1.0650     1.5360 hc         1 AGM       0.075200
     64 H14         10.1060    -0.5620     2.2630 h1         1 AGM       0.054200
     65 H15         11.5060    -0.4000     3.3820 h1         1 AGM       0.054200
     66 H16          8.5720    -1.2300     3.5380 hc         1 AGM       0.118700
     67 H17          7.9930    -3.8980     6.8250 hc         1 AGM       0.127700
     68 H18         11.6480    -4.0820     4.5860 hc         1 AGM       0.130700
     69 H19         12.3390     1.6120     2.8680 hc         1 AGM       0.110200
     70 H20         10.6390     1.4940     2.3140 hc         1 AGM       0.110200
     71 H21         11.1490     2.6980     4.2690 h1         1 AGM       0.078700
     72 H22          8.8840     2.7850     4.2600 hc         1 AGM       0.076700
     73 H23          8.8600     4.5010     4.5120 hc         1 AGM       0.076700
     74 H24          9.0480     3.0870     1.8060 h1         1 AGM       0.050700
     75 H25          9.0840     4.8700     2.0150 h1         1 AGM       0.050700
     76 H26          7.9230     2.7900     0.0180 hc         1 AGM       0.120700
     77 H27          4.4310     4.3390    -1.9010 hc         1 AGM       0.129700
     78 H28          5.1870     5.3330     2.2020 hc         1 AGM       0.129700
     79 H29         11.0370     4.4770     5.9760 hc         1 AGM       0.097200
     80 H30         11.0720     5.7220     4.6820 hc         1 AGM       0.097200
     81 H31         12.9150     6.0920     6.2910 ho         1 AGM       0.470000
@<TRIPOS>BOND
     1     1     2 1   
     2     1    50 1   
     3     2     3 1   
     4     2    14 1   
     5     2    51 1   
     6     3     4 1   
     7     3    52 1   
     8     3    53 1   
     9     4     5 1   
    10     4    54 1   
    11     4    55 1   
    12     5     6 1   
    13     6     7 1   
    14     6     7 1   
    15     6    13 1   
    16     7     8 1   
    17     7    56 1   
    18     8     9 1   
    19     8    10 1   
    20     8    10 1   
    21    10    11 1   
    22    10    57 1   
    23    11    12 1   
    24    11    13 1   
    25    11    13 1   
    26    13    58 1   
    27    14    15 1   
    28    14    59 1   
    29    14    60 1   
    30    15    16 1   
    31    15    16 1   
    32    15    17 1   
    33    17    18 1   
    34    18    19 1   
    35    18    30 1   
    36    18    61 1   
    37    19    20 1   
    38    19    62 1   
    39    19    63 1   
    40    20    21 1   
    41    20    64 1   
    42    20    65 1   
    43    21    22 1   
    44    22    23 1   
    45    22    23 1   
    46    22    29 1   
    47    23    24 1   
    48    23    66 1   
    49    24    25 1   
    50    24    26 1   
    51    24    26 1   
    52    26    27 1   
    53    26    67 1   
    54    27    28 1   
    55    27    29 1   
    56    27    29 1   
    57    29    68 1   
    58    30    31 1   
    59    30    69 1   
    60    30    70 1   
    61    31    32 1   
    62    31    32 1   
    63    31    33 1   
    64    33    34 1   
    65    34    35 1   
    66    34    46 1   
    67    34    71 1   
    68    35    36 1   
    69    35    72 1   
    70    35    73 1   
    71    36    37 1   
    72    36    74 1   
    73    36    75 1   
    74    37    38 1   
    75    38    39 1   
    76    38    39 1   
    77    38    45 1   
    78    39    40 1   
    79    39    76 1   
    80    40    41 1   
    81    40    42 1   
    82    40    42 1   
    83    42    43 1   
    84    42    77 1   
    85    43    44 1   
    86    43    45 1   
    87    43    45 1   
    88    45    78 1   
    89    46    47 1   
    90    46    79 1   
    91    46    80 1   
    92    47    48 1   
    93    47    48 1   
    94    47    49 1   
    95    49    81 1   
@<TRIPOS>SUBSTRUCTURE
     1 AGM         1 TEMP              0 ****  ****    0 ROOT
