@<TRIPOS>MOLECULE
AIM
   93   110     1     0     0
SMALL
abcg2


@<TRIPOS>ATOM
      1 O           15.6930    -2.2710     0.3370 oh         1 AIM      -0.667000
      2 C           15.8680    -1.0290    -0.3450 c3         1 AIM       0.185300
      3 C1          16.9890    -0.2560     0.3620 c3         1 AIM      -0.083400
      4 C2          18.1340    -0.0290    -0.6100 c3         1 AIM      -0.075400
      5 C3          19.2860     0.7160     0.0500 c3         1 AIM      -0.126400
      6 C4          20.4000     0.9330    -0.9510 c3         1 AIM       0.473000
      7 O1          20.3280     0.5840    -2.1280 os         1 AIM      -0.519000
      8 C5          21.6350     1.6070    -0.4960 c3         1 AIM      -0.162000
      9 C6          22.2790     2.4780    -1.3810 c3         1 AIM      -0.034700
     10 C7          23.5440     2.9710    -1.0670 c3         1 AIM      -0.104200
     11 C8          24.1300     2.6540     0.1580 c3         1 AIM      -0.058700
     12 C9          23.4670     1.8180     1.0580 c3         1 AIM      -0.104200
     13 C10         22.2190     1.2880     0.7320 c3         1 AIM      -0.048700
     14 C11         14.5870    -0.2310    -0.2610 c3         1 AIM      -0.165400
     15 C12         13.4270    -0.9310    -0.9240 c3         1 AIM       0.585000
     16 O2          13.4980    -2.0910    -1.3220 os         1 AIM      -0.513000
     17 O3          12.2330    -0.2770    -0.8730 os         1 AIM      -0.449000
     18 C13         12.1950     1.1480    -1.0600 c3         1 AIM       0.175300
     19 C14         11.6460     1.7960     0.2180 c3         1 AIM      -0.081400
     20 C15         12.7610     1.9880     1.2330 c3         1 AIM      -0.078400
     21 C16         12.3030     2.6490     2.5150 c3         1 AIM      -0.125400
     22 C17         13.4890     2.8150     3.4450 c3         1 AIM       0.459000
     23 O4          14.6390     2.5070     3.1390 os         1 AIM      -0.485000
     24 C18         13.2430     3.3880     4.7820 c3         1 AIM      -0.156000
     25 C19         14.1960     4.2580     5.3190 c3         1 AIM      -0.034700
     26 C20         14.0790     4.6710     6.6440 c3         1 AIM      -0.105200
     27 C21         12.9780     4.2740     7.4030 c3         1 AIM      -0.062700
     28 C22         12.0080     3.4370     6.8510 c3         1 AIM      -0.105200
     29 C23         12.1400     2.9860     5.5390 c3         1 AIM      -0.052700
     30 C24         11.3090     1.4880    -2.2500 c3         1 AIM      -0.161400
     31 C25         11.8570     0.8890    -3.5350 c3         1 AIM       0.591000
     32 O5          12.7950     0.1010    -3.5740 os         1 AIM      -0.507000
     33 O6          11.1790     1.2120    -4.6700 os         1 AIM      -0.453000
     34 C26         10.7220     2.5650    -4.8410 c3         1 AIM       0.177300
     35 C27          9.1870     2.5270    -4.8240 c3         1 AIM      -0.093400
     36 C28          8.6060     2.5460    -6.2270 c3         1 AIM      -0.076400
     37 C29          7.0930     2.5440    -6.2420 c3         1 AIM      -0.136400
     38 C30          6.6260     2.5890    -7.6820 c3         1 AIM       0.463000
     39 O7           7.3950     2.6020    -8.6410 os         1 AIM      -0.494000
     40 C31          5.1770     2.6340    -7.9390 c3         1 AIM      -0.158000
     41 C32          4.6740     1.9230    -9.0310 c3         1 AIM      -0.040700
     42 C33          3.3460     2.0990    -9.4100 c3         1 AIM      -0.106200
     43 C34          2.5110     2.9250    -8.6560 c3         1 AIM      -0.065700
     44 C35          3.0070     3.6030    -7.5430 c3         1 AIM      -0.106200
     45 C36          4.3450     3.4640    -7.1830 c3         1 AIM      -0.058700
     46 C37         11.3470     3.1610    -6.1120 c3         1 AIM      -0.145400
     47 C38         12.8470     3.1980    -6.0350 c3         1 AIM       0.589000
     48 O8          13.5070     2.8390    -5.0630 os         1 AIM      -0.514000
     49 O9          13.4250     3.7360    -7.1290 oh         1 AIM      -0.615000
     50 H           14.9800    -2.7400    -0.1480 ho         1 AIM       0.464000
     51 H1          16.1080    -1.2410    -1.3920 h1         1 AIM       0.044700
     52 H2          16.6430     0.7240     0.7200 hc         1 AIM       0.060200
     53 H3          17.3450    -0.8030     1.2430 hc         1 AIM       0.060200
     54 H4          17.7720     0.5380    -1.4770 hc         1 AIM       0.054200
     55 H5          18.4860    -0.9980    -0.9850 hc         1 AIM       0.054200
     56 H6          19.6470     0.1290     0.8990 hc         1 AIM       0.072700
     57 H7          18.9440     1.6940     0.4080 hc         1 AIM       0.072700
     58 H8          21.8070     2.7500    -2.3230 hc         1 AIM       0.114700
     59 H9          24.0830     3.5780    -1.7900 hc         1 AIM       0.099700
     60 H10         25.1100     3.0510     0.4070 hc         1 AIM       0.096700
     61 H11         23.9410     1.5480     1.9980 hc         1 AIM       0.099700
     62 H12         21.7450     0.5960     1.4210 hc         1 AIM       0.096700
     63 H13         14.7780     0.7510    -0.6960 hc         1 AIM       0.096200
     64 H14         14.3530    -0.1580     0.7990 hc         1 AIM       0.096200
     65 H15         13.1750     1.5620    -1.3040 h1         1 AIM       0.083700
     66 H16         11.2080     2.7750    -0.0020 hc         1 AIM       0.062200
     67 H17         10.8650     1.1640     0.6580 hc         1 AIM       0.062200
     68 H18         13.5860     2.5540     0.7800 hc         1 AIM       0.062700
     69 H19         13.1390     1.0150     1.5320 hc         1 AIM       0.062700
     70 H20         11.5520     2.0030     2.9770 hc         1 AIM       0.068700
     71 H21         11.8720     3.6310     2.3030 hc         1 AIM       0.068700
     72 H22         15.0370     4.5940     4.7150 hc         1 AIM       0.116700
     73 H23         14.8600     5.2800     7.0930 hc         1 AIM       0.097700
     74 H24         12.8810     4.6100     8.4320 hc         1 AIM       0.095700
     75 H25         11.1670     3.1050     7.4550 hc         1 AIM       0.097700
     76 H26         11.4040     2.2920     5.1460 hc         1 AIM       0.094700
     77 H27         11.3290     2.5780    -2.2990 hc         1 AIM       0.106700
     78 H28         10.2820     1.1440    -2.1010 hc         1 AIM       0.106700
     79 H29         11.0530     3.2050    -4.0240 h1         1 AIM       0.073700
     80 H30          8.8260     1.6350    -4.2930 hc         1 AIM       0.056700
     81 H31          8.8160     3.3960    -4.2680 hc         1 AIM       0.056700
     82 H32          8.9870     1.6880    -6.7950 hc         1 AIM       0.060200
     83 H33          8.9350     3.4570    -6.7430 hc         1 AIM       0.060200
     84 H34          6.7380     3.4260    -5.7010 hc         1 AIM       0.083200
     85 H35          6.7090     1.6370    -5.7660 hc         1 AIM       0.083200
     86 H36          5.3190     1.2530    -9.5960 hc         1 AIM       0.110700
     87 H37          2.9690     1.6130   -10.3060 hc         1 AIM       0.097700
     88 H38          1.4700     3.0470    -8.9440 hc         1 AIM       0.094700
     89 H39          2.3610     4.2680    -6.9770 hc         1 AIM       0.097700
     90 H40          4.7270     4.0410    -6.3470 hc         1 AIM       0.120700
     91 H41         10.9970     4.1950    -6.2130 hc         1 AIM       0.097200
     92 H42         11.0780     2.5800    -7.0000 hc         1 AIM       0.097200
     93 H43         12.8080     4.0110    -7.8340 ho         1 AIM       0.470000
@<TRIPOS>BOND
     1     1     2 1   
     2     1    50 1   
     3     2     3 1   
     4     2    14 1   
     5     2    51 1   
     6     3     4 1   
     7     3    52 1   
     8     3    53 1   
     9     4     5 1   
    10     4    54 1   
    11     4    55 1   
    12     5     6 1   
    13     5    56 1   
    14     5    57 1   
    15     6     7 1   
    16     6     7 1   
    17     6     8 1   
    18     8     9 1   
    19     8     9 1   
    20     8    13 1   
    21     9    10 1   
    22     9    58 1   
    23    10    11 1   
    24    10    11 1   
    25    10    59 1   
    26    11    12 1   
    27    11    60 1   
    28    12    13 1   
    29    12    13 1   
    30    12    61 1   
    31    13    62 1   
    32    14    15 1   
    33    14    63 1   
    34    14    64 1   
    35    15    16 1   
    36    15    16 1   
    37    15    17 1   
    38    17    18 1   
    39    18    19 1   
    40    18    30 1   
    41    18    65 1   
    42    19    20 1   
    43    19    66 1   
    44    19    67 1   
    45    20    21 1   
    46    20    68 1   
    47    20    69 1   
    48    21    22 1   
    49    21    70 1   
    50    21    71 1   
    51    22    23 1   
    52    22    23 1   
    53    22    24 1   
    54    24    25 1   
    55    24    25 1   
    56    24    29 1   
    57    25    26 1   
    58    25    72 1   
    59    26    27 1   
    60    26    27 1   
    61    26    73 1   
    62    27    28 1   
    63    27    74 1   
    64    28    29 1   
    65    28    29 1   
    66    28    75 1   
    67    29    76 1   
    68    30    31 1   
    69    30    77 1   
    70    30    78 1   
    71    31    32 1   
    72    31    32 1   
    73    31    33 1   
    74    33    34 1   
    75    34    35 1   
    76    34    46 1   
    77    34    79 1   
    78    35    36 1   
    79    35    80 1   
    80    35    81 1   
    81    36    37 1   
    82    36    82 1   
    83    36    83 1   
    84    37    38 1   
    85    37    84 1   
    86    37    85 1   
    87    38    39 1   
    88    38    39 1   
    89    38    40 1   
    90    40    41 1   
    91    40    41 1   
    92    40    45 1   
    93    41    42 1   
    94    41    86 1   
    95    42    43 1   
    96    42    43 1   
    97    42    87 1   
    98    43    44 1   
    99    43    88 1   
   100    44    45 1   
   101    44    45 1   
   102    44    89 1   
   103    45    90 1   
   104    46    47 1   
   105    46    91 1   
   106    46    92 1   
   107    47    48 1   
   108    47    48 1   
   109    47    49 1   
   110    49    93 1   
@<TRIPOS>SUBSTRUCTURE
     1 AIM         1 TEMP              0 ****  ****    0 ROOT
