@<TRIPOS>MOLECULE
ACI
  165   167     1     0     0
SMALL
abcg2


@<TRIPOS>ATOM
      1 O           13.1210    -0.1510     3.9560 oh         1 ACI      -0.668000
      2 C           13.7270    -1.2180     3.2220 c3         1 ACI       0.181300
      3 C1          15.2490    -1.2040     3.4320 c3         1 ACI      -0.076400
      4 C2          15.6810    -0.1360     4.4250 c3         1 ACI      -0.078400
      5 C3          17.1810    -0.1320     4.6160 c3         1 ACI      -0.078400
      6 C4          17.5490     0.9590     5.6060 c3         1 ACI      -0.078400
      7 C5          19.0490     0.9760     5.8090 c3         1 ACI      -0.079400
      8 C6          19.4230     2.0630     6.7980 c3         1 ACI      -0.079400
      9 C7          20.9260     2.0750     6.9990 c3         1 ACI      -0.079400
     10 C8          21.3040     3.1600     7.9880 c3         1 ACI      -0.079400
     11 C9          22.8070     3.1720     8.1880 c3         1 ACI      -0.079400
     12 C10         23.1870     4.2570     9.1780 c3         1 ACI      -0.079400
     13 C11         24.6910     4.2710     9.3800 c3         1 ACI      -0.079400
     14 C12         25.0720     5.3580    10.3710 c3         1 ACI      -0.079400
     15 C13         26.5780     5.3740    10.5750 c3         1 ACI      -0.079400
     16 C14         26.9690     6.4590    11.5670 c3         1 ACI      -0.080400
     17 C15         28.4720     6.4730    11.7680 c3         1 ACI      -0.092100
     18 C16         13.3890    -1.0600     1.7420 c3         1 ACI      -0.166400
     19 C17         11.8930    -1.0760     1.5320 c3         1 ACI       0.597000
     20 O1          11.1020    -1.1810     2.4690 os         1 ACI      -0.518000
     21 O2          11.4330    -0.8960     0.2690 os         1 ACI      -0.457000
     22 C18         12.3120    -0.7250    -0.8650 c3         1 ACI       0.178300
     23 C19         12.2920     0.7680    -1.2230 c3         1 ACI      -0.090400
     24 C20         10.9850     1.1930    -1.8910 c3         1 ACI      -0.080400
     25 C21         10.9970     2.6650    -2.2410 c3         1 ACI      -0.078400
     26 C22          9.6960     3.0210    -2.9400 c3         1 ACI      -0.078400
     27 C23          9.7030     4.4910    -3.3040 c3         1 ACI      -0.079400
     28 C24          8.4050     4.8600    -3.9940 c3         1 ACI      -0.078400
     29 C25          8.4200     6.3340    -4.3490 c3         1 ACI      -0.079400
     30 C26          7.1220     6.7100    -5.0380 c3         1 ACI      -0.079400
     31 C27          7.1370     8.1850    -5.3930 c3         1 ACI      -0.079400
     32 C28          5.8390     8.5620    -6.0820 c3         1 ACI      -0.079400
     33 C29          5.8520    10.0370    -6.4390 c3         1 ACI      -0.079400
     34 C30          4.5520    10.4160    -7.1290 c3         1 ACI      -0.079400
     35 C31          4.5620    11.8930    -7.4870 c3         1 ACI      -0.079400
     36 C32          3.2640    12.2810    -8.1790 c3         1 ACI      -0.080400
     37 C33          3.2760    13.7550    -8.5350 c3         1 ACI      -0.092100
     38 C34         11.8190    -1.5950    -2.0180 c3         1 ACI      -0.144400
     39 C35         11.8110    -3.0650    -1.6810 c3         1 ACI       0.599000
     40 O3          12.1840    -3.4940    -0.5930 os         1 ACI      -0.516000
     41 O4          11.3280    -3.9170    -2.6280 os         1 ACI      -0.454000
     42 C36         10.8360    -3.4970    -3.9270 c3         1 ACI       0.177300
     43 C37          9.3000    -3.5150    -3.9150 c3         1 ACI      -0.093400
     44 C38          8.7230    -3.0360    -2.5900 c3         1 ACI      -0.083400
     45 C39          7.2150    -3.0370    -2.5880 c3         1 ACI      -0.076400
     46 C40          6.7310    -2.5480    -1.2320 c3         1 ACI      -0.080400
     47 C41          5.2180    -2.5400    -1.2160 c3         1 ACI      -0.078400
     48 C42          4.7170    -2.0590     0.1310 c3         1 ACI      -0.079400
     49 C43          3.2010    -2.0580     0.1360 c3         1 ACI      -0.078400
     50 C44          2.6920    -1.5790     1.4810 c3         1 ACI      -0.079400
     51 C45          1.1750    -1.5770     1.4850 c3         1 ACI      -0.078400
     52 C46          0.6640    -1.0980     2.8310 c3         1 ACI      -0.079400
     53 C47         -0.8530    -1.0960     2.8380 c3         1 ACI      -0.078400
     54 C48         -1.3660    -0.6160     4.1850 c3         1 ACI      -0.079400
     55 C49         -2.8860    -0.6130     4.1940 c3         1 ACI      -0.079400
     56 C50         -3.4090    -0.1330     5.5400 c3         1 ACI      -0.080400
     57 C51         -4.9240    -0.1310     5.5470 c3         1 ACI      -0.092100
     58 C52         11.3880    -4.4610    -4.9880 c3         1 ACI      -0.148400
     59 C53         12.8970    -4.4090    -4.9900 c3         1 ACI       0.587000
     60 O5          13.5680    -3.6710    -4.2740 os         1 ACI      -0.510000
     61 O6          13.4770    -5.2290    -5.8900 oh         1 ACI      -0.615000
     62 H           12.1520    -0.2650     3.8710 ho         1 ACI       0.461000
     63 H1          13.3250    -2.1620     3.6100 h1         1 ACI       0.049700
     64 H2          15.5720    -2.1930     3.7860 hc         1 ACI       0.051700
     65 H3          15.7780    -1.0540     2.4820 hc         1 ACI       0.051700
     66 H4          15.1910    -0.3080     5.3910 hc         1 ACI       0.048200
     67 H5          15.3670     0.8510     4.0620 hc         1 ACI       0.048200
     68 H6          17.6810     0.0470     3.6570 hc         1 ACI       0.039200
     69 H7          17.5150    -1.1080     4.9870 hc         1 ACI       0.039200
     70 H8          17.0420     0.7850     6.5640 hc         1 ACI       0.040700
     71 H9          17.2090     1.9350     5.2350 hc         1 ACI       0.040700
     72 H10         19.5530     1.1530     4.8510 hc         1 ACI       0.039200
     73 H11         19.3860     0.0000     6.1790 hc         1 ACI       0.039200
     74 H12         18.9180     1.8870     7.7560 hc         1 ACI       0.039700
     75 H13         19.0860     3.0390     6.4280 hc         1 ACI       0.039700
     76 H14         21.4290     2.2500     6.0400 hc         1 ACI       0.039200
     77 H15         21.2610     1.0980     7.3680 hc         1 ACI       0.039200
     78 H16         20.8000     2.9840     8.9460 hc         1 ACI       0.039700
     79 H17         20.9680     4.1360     7.6180 hc         1 ACI       0.039700
     80 H18         23.3100     3.3470     7.2290 hc         1 ACI       0.039700
     81 H19         23.1430     2.1950     8.5570 hc         1 ACI       0.039700
     82 H20         22.6820     4.0810    10.1360 hc         1 ACI       0.039700
     83 H21         22.8500     5.2340     8.8080 hc         1 ACI       0.039700
     84 H22         25.1940     4.4460     8.4210 hc         1 ACI       0.039700
     85 H23         25.0260     3.2940     9.7490 hc         1 ACI       0.039700
     86 H24         24.5660     5.1810    11.3280 hc         1 ACI       0.039700
     87 H25         24.7340     6.3330    10.0000 hc         1 ACI       0.039700
     88 H26         27.0790     5.5460     9.6140 hc         1 ACI       0.039700
     89 H27         26.9110     4.3950    10.9420 hc         1 ACI       0.039700
     90 H28         26.4700     6.2850    12.5270 hc         1 ACI       0.038700
     91 H29         26.6380     7.4380    11.1990 hc         1 ACI       0.038700
     92 H30         28.8180     5.5100    12.1560 hc         1 ACI       0.032367
     93 H31         28.7510     7.2540    12.4810 hc         1 ACI       0.032367
     94 H32         28.9870     6.6670    10.8220 hc         1 ACI       0.032367
     95 H33         13.8500    -1.8850     1.1870 hc         1 ACI       0.098200
     96 H34         13.7770    -0.0950     1.3920 hc         1 ACI       0.098200
     97 H35         13.3380    -1.0180    -0.6400 h1         1 ACI       0.073700
     98 H36         12.4310     1.3670    -0.3130 hc         1 ACI       0.055700
     99 H37         13.1280     0.9880    -1.8950 hc         1 ACI       0.055700
    100 H38         10.1300     0.9640    -1.2420 hc         1 ACI       0.050200
    101 H39         10.8410     0.6470    -2.8300 hc         1 ACI       0.050200
    102 H40         11.8440     2.8780    -2.9050 hc         1 ACI       0.040700
    103 H41         11.1220     3.2680    -1.3350 hc         1 ACI       0.040700
    104 H42          8.8430     2.7980    -2.2860 hc         1 ACI       0.040700
    105 H43          9.5720     2.4130    -3.8460 hc         1 ACI       0.040700
    106 H44         10.5530     4.7060    -3.9640 hc         1 ACI       0.040200
    107 H45          9.8320     5.0960    -2.3980 hc         1 ACI       0.040200
    108 H46          7.5560     4.6420    -3.3350 hc         1 ACI       0.039700
    109 H47          8.2770     4.2570    -4.9010 hc         1 ACI       0.039700
    110 H48          9.2700     6.5520    -5.0080 hc         1 ACI       0.039700
    111 H49          8.5500     6.9360    -3.4410 hc         1 ACI       0.039700
    112 H50          6.2730     6.4920    -4.3790 hc         1 ACI       0.039200
    113 H51          6.9930     6.1080    -5.9460 hc         1 ACI       0.039200
    114 H52          7.9870     8.4020    -6.0510 hc         1 ACI       0.039700
    115 H53          7.2670     8.7860    -4.4850 hc         1 ACI       0.039700
    116 H54          4.9900     8.3430    -5.4230 hc         1 ACI       0.039200
    117 H55          5.7100     7.9590    -6.9900 hc         1 ACI       0.039200
    118 H56          6.7020    10.2540    -7.0970 hc         1 ACI       0.039700
    119 H57          5.9820    10.6380    -5.5300 hc         1 ACI       0.039700
    120 H58          3.7040    10.1960    -6.4690 hc         1 ACI       0.039200
    121 H59          4.4240     9.8120    -8.0350 hc         1 ACI       0.039200
    122 H60          5.4150    12.1080    -8.1430 hc         1 ACI       0.039700
    123 H61          4.6950    12.4920    -6.5770 hc         1 ACI       0.039700
    124 H62          2.4130    12.0680    -7.5220 hc         1 ACI       0.038200
    125 H63          3.1330    11.6840    -9.0880 hc         1 ACI       0.038200
    126 H64          3.3850    14.3690    -7.6350 hc         1 ACI       0.032700
    127 H65          2.3430    14.0320    -9.0320 hc         1 ACI       0.032700
    128 H66          4.1090    13.9830    -9.2080 hc         1 ACI       0.032700
    129 H67         12.4580    -1.4150    -2.8870 hc         1 ACI       0.108700
    130 H68         10.7980    -1.3100    -2.2490 hc         1 ACI       0.108700
    131 H69         11.1720    -2.4870    -4.1780 h1         1 ACI       0.077700
    132 H70          8.9260    -2.8900    -4.7370 hc         1 ACI       0.058700
    133 H71          8.9310    -4.5310    -4.1010 hc         1 ACI       0.058700
    134 H72          9.0400    -2.0140    -2.3850 hc         1 ACI       0.046700
    135 H73          9.0750    -3.6720    -1.7690 hc         1 ACI       0.046700
    136 H74          6.8400    -4.0470    -2.7840 hc         1 ACI       0.040700
    137 H75          6.8440    -2.3770    -3.3800 hc         1 ACI       0.040700
    138 H76          7.1150    -1.5390    -1.0310 hc         1 ACI       0.044700
    139 H77          7.1130    -3.1990    -0.4350 hc         1 ACI       0.044700
    140 H78          4.8410    -3.5490    -1.4180 hc         1 ACI       0.038700
    141 H79          4.8430    -1.8850    -2.0110 hc         1 ACI       0.038700
    142 H80          5.0950    -1.0500     0.3340 hc         1 ACI       0.042200
    143 H81          5.0950    -2.7140     0.9270 hc         1 ACI       0.042200
    144 H82          2.8260    -3.0680    -0.0690 hc         1 ACI       0.038700
    145 H83          2.8260    -1.4040    -0.6620 hc         1 ACI       0.038700
    146 H84          3.0680    -0.5690     1.6850 hc         1 ACI       0.040700
    147 H85          3.0680    -2.2330     2.2770 hc         1 ACI       0.040700
    148 H86          0.8000    -2.5880     1.2800 hc         1 ACI       0.039200
    149 H87          0.8000    -0.9240     0.6880 hc         1 ACI       0.039200
    150 H88          1.0410    -0.0880     3.0350 hc         1 ACI       0.040200
    151 H89          1.0410    -1.7520     3.6270 hc         1 ACI       0.040200
    152 H90         -1.2280    -2.1060     2.6320 hc         1 ACI       0.039200
    153 H91         -1.2280    -0.4430     2.0400 hc         1 ACI       0.039200
    154 H92         -0.9880     0.3940     4.3870 hc         1 ACI       0.039700
    155 H93         -0.9880    -1.2700     4.9800 hc         1 ACI       0.039700
    156 H94         -3.2580    -1.6240     3.9870 hc         1 ACI       0.039200
    157 H95         -3.2580     0.0390     3.3940 hc         1 ACI       0.039200
    158 H96         -3.0370     0.8770     5.7460 hc         1 ACI       0.038700
    159 H97         -3.0370    -0.7860     6.3390 hc         1 ACI       0.038700
    160 H98         -5.3130     0.5340     4.7690 hc         1 ACI       0.032700
    161 H99         -5.2980     0.2140     6.5150 hc         1 ACI       0.032700
    162 H100        -5.3130    -1.1380     5.3640 hc         1 ACI       0.032700
    163 H101        11.0230    -4.1660    -5.9780 hc         1 ACI       0.092700
    164 H102        11.0680    -5.4880    -4.7730 hc         1 ACI       0.092700
    165 H103        12.8730    -5.7710    -6.4320 ho         1 ACI       0.467000
@<TRIPOS>BOND
     1     1     2 1   
     2     1    62 1   
     3     2     3 1   
     4     2    18 1   
     5     2    63 1   
     6     3     4 1   
     7     3    64 1   
     8     3    65 1   
     9     4     5 1   
    10     4    66 1   
    11     4    67 1   
    12     5     6 1   
    13     5    68 1   
    14     5    69 1   
    15     6     7 1   
    16     6    70 1   
    17     6    71 1   
    18     7     8 1   
    19     7    72 1   
    20     7    73 1   
    21     8     9 1   
    22     8    74 1   
    23     8    75 1   
    24     9    10 1   
    25     9    76 1   
    26     9    77 1   
    27    10    11 1   
    28    10    78 1   
    29    10    79 1   
    30    11    12 1   
    31    11    80 1   
    32    11    81 1   
    33    12    13 1   
    34    12    82 1   
    35    12    83 1   
    36    13    14 1   
    37    13    84 1   
    38    13    85 1   
    39    14    15 1   
    40    14    86 1   
    41    14    87 1   
    42    15    16 1   
    43    15    88 1   
    44    15    89 1   
    45    16    17 1   
    46    16    90 1   
    47    16    91 1   
    48    17    92 1   
    49    17    93 1   
    50    17    94 1   
    51    18    19 1   
    52    18    95 1   
    53    18    96 1   
    54    19    20 1   
    55    19    20 1   
    56    19    21 1   
    57    21    22 1   
    58    22    23 1   
    59    22    38 1   
    60    22    97 1   
    61    23    24 1   
    62    23    98 1   
    63    23    99 1   
    64    24    25 1   
    65    24   100 1   
    66    24   101 1   
    67    25    26 1   
    68    25   102 1   
    69    25   103 1   
    70    26    27 1   
    71    26   104 1   
    72    26   105 1   
    73    27    28 1   
    74    27   106 1   
    75    27   107 1   
    76    28    29 1   
    77    28   108 1   
    78    28   109 1   
    79    29    30 1   
    80    29   110 1   
    81    29   111 1   
    82    30    31 1   
    83    30   112 1   
    84    30   113 1   
    85    31    32 1   
    86    31   114 1   
    87    31   115 1   
    88    32    33 1   
    89    32   116 1   
    90    32   117 1   
    91    33    34 1   
    92    33   118 1   
    93    33   119 1   
    94    34    35 1   
    95    34   120 1   
    96    34   121 1   
    97    35    36 1   
    98    35   122 1   
    99    35   123 1   
   100    36    37 1   
   101    36   124 1   
   102    36   125 1   
   103    37   126 1   
   104    37   127 1   
   105    37   128 1   
   106    38    39 1   
   107    38   129 1   
   108    38   130 1   
   109    39    40 1   
   110    39    40 1   
   111    39    41 1   
   112    41    42 1   
   113    42    43 1   
   114    42    58 1   
   115    42   131 1   
   116    43    44 1   
   117    43   132 1   
   118    43   133 1   
   119    44    45 1   
   120    44   134 1   
   121    44   135 1   
   122    45    46 1   
   123    45   136 1   
   124    45   137 1   
   125    46    47 1   
   126    46   138 1   
   127    46   139 1   
   128    47    48 1   
   129    47   140 1   
   130    47   141 1   
   131    48    49 1   
   132    48   142 1   
   133    48   143 1   
   134    49    50 1   
   135    49   144 1   
   136    49   145 1   
   137    50    51 1   
   138    50   146 1   
   139    50   147 1   
   140    51    52 1   
   141    51   148 1   
   142    51   149 1   
   143    52    53 1   
   144    52   150 1   
   145    52   151 1   
   146    53    54 1   
   147    53   152 1   
   148    53   153 1   
   149    54    55 1   
   150    54   154 1   
   151    54   155 1   
   152    55    56 1   
   153    55   156 1   
   154    55   157 1   
   155    56    57 1   
   156    56   158 1   
   157    56   159 1   
   158    57   160 1   
   159    57   161 1   
   160    57   162 1   
   161    58    59 1   
   162    58   163 1   
   163    58   164 1   
   164    59    60 1   
   165    59    60 1   
   166    59    61 1   
   167    61   165 1   
@<TRIPOS>SUBSTRUCTURE
     1 ACI         1 TEMP              0 ****  ****    0 ROOT
