@<TRIPOS>MOLECULE
AIA
   99   113     1     0     0
SMALL
abcg2


@<TRIPOS>ATOM
      1 O            7.2020     1.7000     3.2710 oh         1 AIA      -0.668000
      2 C            8.6340     1.7020     3.2810 c3         1 AIA       0.182300
      3 C1           9.0900     3.1350     2.9280 c3         1 AIA      -0.075400
      4 C2           9.8370     3.2410     1.5910 c3         1 AIA      -0.076400
      5 C3          10.2950     4.6470     1.2690 c3         1 AIA      -0.071400
      6 C4          11.0380     4.6530    -0.0720 c3         1 AIA       0.014600
      7 S           11.5250     6.3700    -0.3900 ss         1 AIA      -0.238000
      8 C5          12.3860     6.2560    -1.9440 c3         1 AIA       0.006000
      9 C6          13.6480     5.6640    -2.0450 c3         1 AIA      -0.105700
     10 C7          14.4280     5.8690    -3.1890 c3         1 AIA      -0.074200
     11 C8          13.9170     6.5900    -4.2680 c3         1 AIA      -0.101700
     12 C9          12.6410     7.1430    -4.1900 c3         1 AIA      -0.074200
     13 C10         11.8850     6.9860    -3.0270 c3         1 AIA      -0.083700
     14 C11          9.1320     0.6760     2.2780 c3         1 AIA      -0.166400
     15 C12          8.6680    -0.7240     2.5390 c3         1 AIA       0.595000
     16 O1           7.9620    -1.0120     3.5010 os         1 AIA      -0.515000
     17 O2           9.0090    -1.6490     1.6040 os         1 AIA      -0.458000
     18 C13          9.8110    -1.3340     0.4270 c3         1 AIA       0.179300
     19 C14          8.9490    -0.4550    -0.5190 c3         1 AIA      -0.090400
     20 C15          8.5510    -1.0770    -1.8500 c3         1 AIA      -0.078400
     21 C16          7.7200    -0.1200    -2.6800 c3         1 AIA      -0.071400
     22 C17          7.3560    -0.7970    -3.9990 c3         1 AIA       0.013600
     23 S1           6.3630     0.3900    -4.9360 ss         1 AIA      -0.237000
     24 C18          6.0300    -0.4970    -6.4430 c3         1 AIA       0.006000
     25 C19          7.0290    -0.7370    -7.3910 c3         1 AIA      -0.105700
     26 C20          6.6810    -1.1440    -8.6830 c3         1 AIA      -0.074200
     27 C21          5.3480    -1.3990    -9.0050 c3         1 AIA      -0.100700
     28 C22          4.3550    -1.2080    -8.0480 c3         1 AIA      -0.074200
     29 C23          4.6950    -0.7470    -6.7750 c3         1 AIA      -0.083700
     30 C24         10.1720    -2.6470    -0.2490 c3         1 AIA      -0.146400
     31 C25         10.9240    -3.6480     0.5760 c3         1 AIA       0.599000
     32 O3          11.3490    -3.3860     1.6960 os         1 AIA      -0.515000
     33 O4          11.1030    -4.8860     0.0280 os         1 AIA      -0.455000
     34 C26         10.7200    -5.2730    -1.3250 c3         1 AIA       0.178300
     35 C27          9.1920    -5.4160    -1.4110 c3         1 AIA      -0.090400
     36 C28          8.6590    -6.5490    -0.5480 c3         1 AIA      -0.078400
     37 C29          7.1420    -6.5090    -0.5150 c3         1 AIA      -0.071400
     38 C30          6.6180    -7.6950     0.2850 c3         1 AIA       0.012600
     39 S2           4.8100    -7.5970     0.2490 ss         1 AIA      -0.237000
     40 C31          4.3340    -9.0410     1.1770 c3         1 AIA       0.004000
     41 C32          4.4920   -10.3310     0.6610 c3         1 AIA      -0.105700
     42 C33          3.8370   -11.4100     1.2650 c3         1 AIA      -0.073200
     43 C34          3.0980   -11.2190     2.4320 c3         1 AIA      -0.098700
     44 C35          2.9780    -9.9430     2.9760 c3         1 AIA      -0.073200
     45 C36          3.5840    -8.8570     2.3430 c3         1 AIA      -0.082700
     46 C37         11.3670    -6.6360    -1.6640 c3         1 AIA      -0.149400
     47 C38         12.8660    -6.5810    -1.7000 c3         1 AIA       0.587000
     48 O5          13.5310    -5.5660    -1.5140 os         1 AIA      -0.511000
     49 O6          13.4430    -7.7700    -1.9860 oh         1 AIA      -0.613000
     50 H            6.9200     0.8060     3.5570 ho         1 AIA       0.462000
     51 H1           8.9620     1.4420     4.2920 h1         1 AIA       0.048700
     52 H2           8.2270     3.8140     2.9120 hc         1 AIA       0.054700
     53 H3           9.7520     3.4910     3.7260 hc         1 AIA       0.054700
     54 H4           9.1870     2.9050     0.7730 hc         1 AIA       0.049200
     55 H5          10.7250     2.6000     1.6090 hc         1 AIA       0.049200
     56 H6          10.9490     4.9980     2.0760 hc         1 AIA       0.056200
     57 H7           9.4170     5.3030     1.2310 hc         1 AIA       0.056200
     58 H8          10.3830     4.2890    -0.8720 h1         1 AIA       0.066700
     59 H9          11.9150     3.9970    -0.0240 h1         1 AIA       0.066700
     60 H10         14.0620     5.0900    -1.2200 hc         1 AIA       0.090700
     61 H11         15.4500     5.5020    -3.2240 hc         1 AIA       0.092200
     62 H12         14.5180     6.7340    -5.1630 hc         1 AIA       0.092700
     63 H13         12.2500     7.7330    -5.0150 hc         1 AIA       0.092200
     64 H14         10.9150     7.4720    -2.9570 hc         1 AIA       0.101700
     65 H15         10.2240     0.6730     2.2340 hc         1 AIA       0.099700
     66 H16          8.6970     0.9860     1.3330 hc         1 AIA       0.099700
     67 H17         10.7300    -0.8270     0.7370 h1         1 AIA       0.074700
     68 H18          8.0010    -0.1900    -0.0350 hc         1 AIA       0.057700
     69 H19          9.4990     0.4760    -0.7100 hc         1 AIA       0.057700
     70 H20          7.9490    -1.9750    -1.6710 hc         1 AIA       0.053200
     71 H21          9.4420    -1.3530    -2.4200 hc         1 AIA       0.053200
     72 H22          8.2980     0.7970    -2.8520 hc         1 AIA       0.057200
     73 H23          6.8180     0.1550    -2.1180 hc         1 AIA       0.057200
     74 H24          6.7830    -1.7120    -3.8080 h1         1 AIA       0.067700
     75 H25          8.2680    -1.0700    -4.5430 h1         1 AIA       0.067700
     76 H26          8.0740    -0.5540    -7.1580 hc         1 AIA       0.089700
     77 H27          7.4440    -1.2240    -9.4530 hc         1 AIA       0.092700
     78 H28          5.0810    -1.7310   -10.0050 hc         1 AIA       0.092700
     79 H29          3.3110    -1.3740    -8.3020 hc         1 AIA       0.092700
     80 H30          3.9050    -0.5460    -6.0550 hc         1 AIA       0.101700
     81 H31         10.7260    -2.4720    -1.1740 hc         1 AIA       0.109700
     82 H32          9.1970    -3.0620    -0.4330 hc         1 AIA       0.109700
     83 H33         11.0830    -4.5160    -2.0330 h1         1 AIA       0.075700
     84 H34          8.6640    -4.5480    -1.0480 hc         1 AIA       0.058200
     85 H35          8.8750    -5.5090    -2.4540 hc         1 AIA       0.058200
     86 H36          9.0500    -6.4600     0.4740 hc         1 AIA       0.052200
     87 H37          8.9790    -7.5090    -0.9570 hc         1 AIA       0.052200
     88 H38          6.7690    -6.5340    -1.5480 hc         1 AIA       0.057200
     89 H39          6.8090    -5.5590    -0.0710 hc         1 AIA       0.057200
     90 H40          6.9860    -7.6450     1.3150 h1         1 AIA       0.067700
     91 H41          6.9700    -8.6290    -0.1670 h1         1 AIA       0.067700
     92 H42          5.0740   -10.5030    -0.2390 hc         1 AIA       0.089700
     93 H43          3.8710   -12.3940     0.8040 hc         1 AIA       0.093700
     94 H44          2.6060   -12.0620     2.9110 hc         1 AIA       0.093700
     95 H45          2.3790    -9.7840     3.8690 hc         1 AIA       0.093700
     96 H46          3.4360    -7.8580     2.7470 hc         1 AIA       0.102700
     97 H47         11.0090    -6.9680    -2.6480 hc         1 AIA       0.094200
     98 H48         11.1040    -7.3870    -0.9110 hc         1 AIA       0.094200
     99 H49         12.8370    -8.5240    -2.1220 ho         1 AIA       0.468000
@<TRIPOS>BOND
     1     1     2 1   
     2     1    50 1   
     3     2     3 1   
     4     2    14 1   
     5     2    51 1   
     6     3     4 1   
     7     3    52 1   
     8     3    53 1   
     9     4     5 1   
    10     4    54 1   
    11     4    55 1   
    12     5     6 1   
    13     5    56 1   
    14     5    57 1   
    15     6     7 1   
    16     6    58 1   
    17     6    59 1   
    18     7     8 1   
    19     8     9 1   
    20     8     9 1   
    21     8    13 1   
    22     9    10 1   
    23     9    60 1   
    24    10    11 1   
    25    10    11 1   
    26    10    61 1   
    27    11    12 1   
    28    11    62 1   
    29    12    13 1   
    30    12    13 1   
    31    12    63 1   
    32    13    64 1   
    33    14    15 1   
    34    14    65 1   
    35    14    66 1   
    36    15    16 1   
    37    15    16 1   
    38    15    17 1   
    39    17    18 1   
    40    18    19 1   
    41    18    30 1   
    42    18    67 1   
    43    19    20 1   
    44    19    68 1   
    45    19    69 1   
    46    20    21 1   
    47    20    70 1   
    48    20    71 1   
    49    21    22 1   
    50    21    72 1   
    51    21    73 1   
    52    22    23 1   
    53    22    74 1   
    54    22    75 1   
    55    23    24 1   
    56    24    25 1   
    57    24    25 1   
    58    24    29 1   
    59    25    26 1   
    60    25    76 1   
    61    26    27 1   
    62    26    27 1   
    63    26    77 1   
    64    27    28 1   
    65    27    78 1   
    66    28    29 1   
    67    28    29 1   
    68    28    79 1   
    69    29    80 1   
    70    30    31 1   
    71    30    81 1   
    72    30    82 1   
    73    31    32 1   
    74    31    32 1   
    75    31    33 1   
    76    33    34 1   
    77    34    35 1   
    78    34    46 1   
    79    34    83 1   
    80    35    36 1   
    81    35    84 1   
    82    35    85 1   
    83    36    37 1   
    84    36    86 1   
    85    36    87 1   
    86    37    38 1   
    87    37    88 1   
    88    37    89 1   
    89    38    39 1   
    90    38    90 1   
    91    38    91 1   
    92    39    40 1   
    93    40    41 1   
    94    40    41 1   
    95    40    45 1   
    96    41    42 1   
    97    41    92 1   
    98    42    43 1   
    99    42    43 1   
   100    42    93 1   
   101    43    44 1   
   102    43    94 1   
   103    44    45 1   
   104    44    45 1   
   105    44    95 1   
   106    45    96 1   
   107    46    47 1   
   108    46    97 1   
   109    46    98 1   
   110    47    48 1   
   111    47    48 1   
   112    47    49 1   
   113    49    99 1   
@<TRIPOS>SUBSTRUCTURE
     1 AIA         1 TEMP              0 ****  ****    0 ROOT
