@<TRIPOS>MOLECULE
ALX
   78    92     1     0     0
SMALL
abcg2


@<TRIPOS>ATOM
      1 O           13.7870    -3.8930     1.2520 oh         1 ALX      -0.664000
      2 C           14.3820    -2.6430     0.9030 c3         1 ALX       0.179300
      3 C1          15.2220    -2.1860     2.1040 c3         1 ALX      -0.080400
      4 C2          16.7100    -2.3210     1.7860 c3         1 ALX      -0.045400
      5 C3          17.5600    -1.8640     2.9400 c3         1 ALX      -0.074000
      6 C4          17.9650    -0.5260     3.0290 c3         1 ALX      -0.079700
      7 C5          18.7590    -0.1010     4.0940 c3         1 ALX      -0.082700
      8 C6          19.1400    -1.0120     5.0770 c3         1 ALX       0.088000
      9 Cl          20.1420    -0.4920     6.3750 cl         1 ALX      -0.164000
     10 C7          18.7200    -2.3390     5.0150 c3         1 ALX      -0.081700
     11 C8          17.9280    -2.7650     3.9480 c3         1 ALX      -0.078700
     12 C9          13.2910    -1.6270     0.5790 c3         1 ALX      -0.157400
     13 C10         12.4620    -2.0610    -0.6050 c3         1 ALX       0.594000
     14 O1          12.6010    -3.1660    -1.1230 os         1 ALX      -0.510000
     15 O2          11.4290    -1.2510    -0.9550 os         1 ALX      -0.467000
     16 C11         11.5590     0.1880    -0.9430 c3         1 ALX       0.174300
     17 C12         10.8090     0.7180     0.2890 c3         1 ALX      -0.107400
     18 C13         11.7940     1.2480     1.3270 c3         1 ALX      -0.042400
     19 C14         11.0960     1.7590     2.5480 c3         1 ALX      -0.081000
     20 C15         10.7640     3.1130     2.6280 c3         1 ALX      -0.076700
     21 C16         10.1360     3.6070     3.7660 c3         1 ALX      -0.081700
     22 C17          9.8330     2.7440     4.8190 c3         1 ALX       0.091000
     23 Cl1          9.0780     3.3680     6.2320 cl         1 ALX      -0.159000
     24 C18         10.1380     1.3870     4.7380 c3         1 ALX      -0.079700
     25 C19         10.7700     0.8910     3.6000 c3         1 ALX      -0.078700
     26 C20         10.9350     0.7460    -2.2320 c3         1 ALX      -0.123400
     27 C21         11.6650     0.2620    -3.4680 c3         1 ALX       0.596000
     28 O3          12.6030    -0.5260    -3.4130 os         1 ALX      -0.497000
     29 O4          11.1630     0.6620    -4.6680 os         1 ALX      -0.474000
     30 C22         10.7280     2.0260    -4.8950 c3         1 ALX       0.175300
     31 C23          9.1950     2.0280    -4.9110 c3         1 ALX      -0.115400
     32 C24          8.6510     2.8120    -3.7180 c3         1 ALX      -0.037400
     33 C25          7.1530     2.8240    -3.7060 c3         1 ALX      -0.085000
     34 C26          6.4680     3.8700    -4.3330 c3         1 ALX      -0.079700
     35 C27          5.0770     3.9000    -4.3160 c3         1 ALX      -0.086700
     36 C28          4.3700     2.8810    -3.6810 c3         1 ALX       0.088000
     37 Cl2          2.6520     2.9380    -3.6400 cl         1 ALX      -0.168000
     38 C29          5.0420     1.8200    -3.0760 c3         1 ALX      -0.076700
     39 C30          6.4360     1.7890    -3.0900 c3         1 ALX      -0.074700
     40 C31         11.2910     2.5100    -6.2490 c3         1 ALX      -0.133400
     41 C32         12.8000     2.5510    -6.2060 c3         1 ALX       0.581000
     42 O5          13.4700     2.2740    -5.2180 os         1 ALX      -0.493000
     43 O6          13.3780     2.9880    -7.3450 oh         1 ALX      -0.623000
     44 H           13.3020    -4.1960     0.4550 ho         1 ALX       0.461000
     45 H1          15.0110    -2.8030     0.0190 h1         1 ALX       0.053700
     46 H2          15.0100    -1.1390     2.3600 hc         1 ALX       0.064200
     47 H3          14.9800    -2.7800     2.9950 hc         1 ALX       0.064200
     48 H4          16.9560    -1.7210     0.9000 hc         1 ALX       0.051200
     49 H5          16.9560    -3.3590     1.5300 hc         1 ALX       0.051200
     50 H6          17.6670     0.1900     2.2660 hc         1 ALX       0.096700
     51 H7          19.0760     0.9360     4.1480 hc         1 ALX       0.108700
     52 H8          19.0050    -3.0450     5.7890 hc         1 ALX       0.109700
     53 H9          17.6000    -3.8020     3.9040 hc         1 ALX       0.099700
     54 H10         13.7790    -0.6710     0.3700 hc         1 ALX       0.090200
     55 H11         12.6170    -1.5580     1.4400 hc         1 ALX       0.090200
     56 H12         12.6140     0.4820    -0.9360 h1         1 ALX       0.077700
     57 H13         10.1290     1.5360     0.0130 hc         1 ALX       0.065700
     58 H14         10.1810    -0.0690     0.7300 hc         1 ALX       0.065700
     59 H15         12.4150     2.0380     0.8860 hc         1 ALX       0.052700
     60 H16         12.4950     0.4840     1.6580 hc         1 ALX       0.052700
     61 H17         11.0020     3.7850     1.8080 hc         1 ALX       0.097700
     62 H18          9.8910     4.6630     3.8250 hc         1 ALX       0.110700
     63 H19          9.8910     0.7140     5.5540 hc         1 ALX       0.111700
     64 H20         11.0120    -0.1690     3.5420 hc         1 ALX       0.097700
     65 H21         11.0020     1.8360    -2.1770 hc         1 ALX       0.097200
     66 H22          9.8900     0.4230    -2.3020 hc         1 ALX       0.097200
     67 H23         11.1260     2.6850    -4.1160 h1         1 ALX       0.060700
     68 H24          8.8130     2.4860    -5.8330 hc         1 ALX       0.072700
     69 H25          8.8060     1.0010    -4.8920 hc         1 ALX       0.072700
     70 H26          9.0340     3.8390    -3.7380 hc         1 ALX       0.049200
     71 H27          8.9900     2.3920    -2.7700 hc         1 ALX       0.049200
     72 H28          7.0170     4.6650    -4.8310 hc         1 ALX       0.094700
     73 H29          4.5540     4.7220    -4.7960 hc         1 ALX       0.107700
     74 H30          4.4900     1.0180    -2.5930 hc         1 ALX       0.115700
     75 H31          6.9550     0.9580    -2.6160 hc         1 ALX       0.121700
     76 H32         10.9340     3.5300    -6.4420 hc         1 ALX       0.096700
     77 H33         10.9690     1.8530    -7.0640 hc         1 ALX       0.096700
     78 H34         12.7790     3.2180    -8.0800 ho         1 ALX       0.486000
@<TRIPOS>BOND
     1     1     2 1   
     2     1    44 1   
     3     2     3 1   
     4     2    12 1   
     5     2    45 1   
     6     3     4 1   
     7     3    46 1   
     8     3    47 1   
     9     4     5 1   
    10     4    48 1   
    11     4    49 1   
    12     5     6 1   
    13     5     6 1   
    14     5    11 1   
    15     6     7 1   
    16     6    50 1   
    17     7     8 1   
    18     7     8 1   
    19     7    51 1   
    20     8     9 1   
    21     8    10 1   
    22    10    11 1   
    23    10    11 1   
    24    10    52 1   
    25    11    53 1   
    26    12    13 1   
    27    12    54 1   
    28    12    55 1   
    29    13    14 1   
    30    13    14 1   
    31    13    15 1   
    32    15    16 1   
    33    16    17 1   
    34    16    26 1   
    35    16    56 1   
    36    17    18 1   
    37    17    57 1   
    38    17    58 1   
    39    18    19 1   
    40    18    59 1   
    41    18    60 1   
    42    19    20 1   
    43    19    20 1   
    44    19    25 1   
    45    20    21 1   
    46    20    61 1   
    47    21    22 1   
    48    21    22 1   
    49    21    62 1   
    50    22    23 1   
    51    22    24 1   
    52    24    25 1   
    53    24    25 1   
    54    24    63 1   
    55    25    64 1   
    56    26    27 1   
    57    26    65 1   
    58    26    66 1   
    59    27    28 1   
    60    27    28 1   
    61    27    29 1   
    62    29    30 1   
    63    30    31 1   
    64    30    40 1   
    65    30    67 1   
    66    31    32 1   
    67    31    68 1   
    68    31    69 1   
    69    32    33 1   
    70    32    70 1   
    71    32    71 1   
    72    33    34 1   
    73    33    34 1   
    74    33    39 1   
    75    34    35 1   
    76    34    72 1   
    77    35    36 1   
    78    35    36 1   
    79    35    73 1   
    80    36    37 1   
    81    36    38 1   
    82    38    39 1   
    83    38    39 1   
    84    38    74 1   
    85    39    75 1   
    86    40    41 1   
    87    40    76 1   
    88    40    77 1   
    89    41    42 1   
    90    41    42 1   
    91    41    43 1   
    92    43    78 1   
@<TRIPOS>SUBSTRUCTURE
     1 ALX         1 TEMP              0 ****  ****    0 ROOT
