@<TRIPOS>MOLECULE
ALH
   78    92     1     0     0
SMALL
abcg2


@<TRIPOS>ATOM
      1 O           16.0930     2.0940     2.5540 oh         1 ALH      -0.669000
      2 C           15.5350     1.1070     3.4160 c3         1 ALH       0.181300
      3 C1          16.6240     0.6510     4.3950 c3         1 ALH      -0.072400
      4 C2          17.2050    -0.7200     4.0230 c3         1 ALH      -0.048400
      5 C3          18.3530    -1.2100     4.8300 c3         1 ALH      -0.056000
      6 C4          19.0730    -2.2990     4.3200 c3         1 ALH      -0.090700
      7 C5          20.1950    -2.7560     4.9910 c3         1 ALH      -0.062700
      8 C6          20.5780    -2.1330     6.1770 c3         1 ALH       0.039000
      9 Br          22.1330    -2.7140     7.0730 br         1 ALH      -0.163000
     10 C7          19.8370    -1.0810     6.7130 c3         1 ALH      -0.062700
     11 C8          18.7120    -0.6280     6.0440 c3         1 ALH      -0.088700
     12 C9          15.0460    -0.0410     2.5640 c3         1 ALH      -0.168400
     13 C10         13.9350     0.3220     1.6280 c3         1 ALH       0.593000
     14 O1          13.5410     1.4730     1.4740 os         1 ALH      -0.514000
     15 O2          13.4710    -0.7010     0.8600 os         1 ALH      -0.456000
     16 C11         13.8030    -2.0630     1.1890 c3         1 ALH       0.180300
     17 C12         14.1730    -2.7720    -0.1080 c3         1 ALH      -0.090400
     18 C13         15.3210    -3.7640     0.1110 c3         1 ALH      -0.051400
     19 C14         15.6860    -4.5370    -1.1290 c3         1 ALH      -0.063000
     20 C15         16.5130    -5.6600    -1.0000 c3         1 ALH      -0.083700
     21 C16         16.8220    -6.4380    -2.1160 c3         1 ALH      -0.063700
     22 C17         16.3150    -6.0890    -3.3660 c3         1 ALH       0.042000
     23 Br1         16.6930    -7.1620    -4.8720 br         1 ALH      -0.162000
     24 C18         15.5250    -4.9560    -3.5170 c3         1 ALH      -0.064700
     25 C19         15.2240    -4.1780    -2.4050 c3         1 ALH      -0.088700
     26 C20         12.5980    -2.7010     1.8410 c3         1 ALH      -0.153400
     27 C21         12.2000    -2.0460     3.1630 c3         1 ALH       0.597000
     28 O3          12.6310    -0.9770     3.5830 os         1 ALH      -0.512000
     29 O4          11.2610    -2.6630     3.9070 os         1 ALH      -0.456000
     30 C22         10.8230    -3.9760     3.5770 c3         1 ALH       0.178300
     31 C23          9.3100    -3.8840     3.5800 c3         1 ALH      -0.094400
     32 C24          8.7190    -5.0000     2.7330 c3         1 ALH      -0.045400
     33 C25          7.2200    -5.0320     2.7420 c3         1 ALH      -0.066000
     34 C26          6.5880    -6.1880     2.2710 c3         1 ALH      -0.087700
     35 C27          5.2020    -6.2980     2.3240 c3         1 ALH      -0.060700
     36 C28          4.4430    -5.2460     2.8340 c3         1 ALH       0.044000
     37 Br2          2.5660    -5.4100     2.9460 br         1 ALH      -0.151000
     38 C29          5.0540    -4.0750     3.2670 c3         1 ALH      -0.058700
     39 C30          6.4380    -3.9650     3.2080 c3         1 ALH      -0.085700
     40 C31         11.3980    -4.9620     4.5960 c3         1 ALH      -0.150400
     41 C32         12.9160    -4.9670     4.6170 c3         1 ALH       0.591000
     42 O5          13.6500    -4.2240     3.9700 os         1 ALH      -0.520000
     43 O6          13.4570    -5.8970     5.4220 oh         1 ALH      -0.613000
     44 H           15.3560     2.3830     1.9750 ho         1 ALH       0.463000
     45 H1          14.7130     1.5640     3.9790 h1         1 ALH       0.049700
     46 H2          17.4280     1.3960     4.4300 hc         1 ALH       0.059200
     47 H3          16.1910     0.5900     5.4010 hc         1 ALH       0.059200
     48 H4          17.5600    -0.6720     2.9850 hc         1 ALH       0.057700
     49 H5          16.4370    -1.4990     4.1010 hc         1 ALH       0.057700
     50 H6          18.7650    -2.7700     3.3870 hc         1 ALH       0.097700
     51 H7          20.7630    -3.5800     4.5730 hc         1 ALH       0.105700
     52 H8          20.1260    -0.5920     7.6370 hc         1 ALH       0.106700
     53 H9          18.1380     0.1930     6.4670 hc         1 ALH       0.103700
     54 H10         14.7330    -0.8210     3.2580 hc         1 ALH       0.100200
     55 H11         15.8480    -0.4140     1.9180 hc         1 ALH       0.100200
     56 H12         14.6620    -2.1660     1.8530 h1         1 ALH       0.074700
     57 H13         13.3020    -3.3040    -0.5130 hc         1 ALH       0.066200
     58 H14         14.4690    -2.0250    -0.8520 hc         1 ALH       0.066200
     59 H15         15.0350    -4.4780     0.8960 hc         1 ALH       0.057700
     60 H16         16.2110    -3.2280     0.4670 hc         1 ALH       0.057700
     61 H17         16.9080    -5.9420    -0.0250 hc         1 ALH       0.118700
     62 H18         17.4490    -7.3160    -1.9970 hc         1 ALH       0.107700
     63 H19         15.1270    -4.6680    -4.4860 hc         1 ALH       0.106700
     64 H20         14.6070    -3.2980    -2.5630 hc         1 ALH       0.096700
     65 H21         12.8800    -3.7480     1.9740 hc         1 ALH       0.111200
     66 H22         11.7340    -2.6630     1.1710 hc         1 ALH       0.111200
     67 H23         11.1100    -4.2780     2.5720 h1         1 ALH       0.076700
     68 H24          8.9260    -3.9090     4.6080 hc         1 ALH       0.069200
     69 H25          9.0080    -2.9100     3.1660 hc         1 ALH       0.069200
     70 H26          9.0900    -5.9590     3.1130 hc         1 ALH       0.051200
     71 H27          9.0680    -4.9020     1.6960 hc         1 ALH       0.051200
     72 H28          7.1780    -7.0150     1.8790 hc         1 ALH       0.094700
     73 H29          4.7270    -7.2100     1.9760 hc         1 ALH       0.109700
     74 H30          4.4740    -3.2470     3.6620 hc         1 ALH       0.111700
     75 H31          6.8840    -3.0350     3.5530 hc         1 ALH       0.099700
     76 H32         11.0560    -5.9660     4.3310 hc         1 ALH       0.095200
     77 H33         11.0450    -4.7040     5.6000 hc         1 ALH       0.095200
     78 H34         12.8280    -6.4290     5.9410 ho         1 ALH       0.470000
@<TRIPOS>BOND
     1     1     2 1   
     2     1    44 1   
     3     2     3 1   
     4     2    12 1   
     5     2    45 1   
     6     3     4 1   
     7     3    46 1   
     8     3    47 1   
     9     4     5 1   
    10     4    48 1   
    11     4    49 1   
    12     5     6 1   
    13     5     6 1   
    14     5    11 1   
    15     6     7 1   
    16     6    50 1   
    17     7     8 1   
    18     7     8 1   
    19     7    51 1   
    20     8     9 1   
    21     8    10 1   
    22    10    11 1   
    23    10    11 1   
    24    10    52 1   
    25    11    53 1   
    26    12    13 1   
    27    12    54 1   
    28    12    55 1   
    29    13    14 1   
    30    13    14 1   
    31    13    15 1   
    32    15    16 1   
    33    16    17 1   
    34    16    26 1   
    35    16    56 1   
    36    17    18 1   
    37    17    57 1   
    38    17    58 1   
    39    18    19 1   
    40    18    59 1   
    41    18    60 1   
    42    19    20 1   
    43    19    20 1   
    44    19    25 1   
    45    20    21 1   
    46    20    61 1   
    47    21    22 1   
    48    21    22 1   
    49    21    62 1   
    50    22    23 1   
    51    22    24 1   
    52    24    25 1   
    53    24    25 1   
    54    24    63 1   
    55    25    64 1   
    56    26    27 1   
    57    26    65 1   
    58    26    66 1   
    59    27    28 1   
    60    27    28 1   
    61    27    29 1   
    62    29    30 1   
    63    30    31 1   
    64    30    40 1   
    65    30    67 1   
    66    31    32 1   
    67    31    68 1   
    68    31    69 1   
    69    32    33 1   
    70    32    70 1   
    71    32    71 1   
    72    33    34 1   
    73    33    34 1   
    74    33    39 1   
    75    34    35 1   
    76    34    72 1   
    77    35    36 1   
    78    35    36 1   
    79    35    73 1   
    80    36    37 1   
    81    36    38 1   
    82    38    39 1   
    83    38    39 1   
    84    38    74 1   
    85    39    75 1   
    86    40    41 1   
    87    40    76 1   
    88    40    77 1   
    89    41    42 1   
    90    41    42 1   
    91    41    43 1   
    92    43    78 1   
@<TRIPOS>SUBSTRUCTURE
     1 ALH         1 TEMP              0 ****  ****    0 ROOT
