@<TRIPOS>MOLECULE
AGA
   81    95     1     0     0
SMALL
abcg2


@<TRIPOS>ATOM
      1 O           11.7020     3.6100    -2.9490 oh         1 AGA      -0.669000
      2 C           12.7730     2.9770    -2.2470 c3         1 AGA       0.184300
      3 C1          13.7030     2.3540    -3.3010 c3         1 AGA      -0.083400
      4 C2          14.6870     3.3980    -3.8360 c3         1 AGA       0.154600
      5 O1          15.5370     2.7830    -4.8150 os         1 AGA      -0.405000
      6 C3          16.4630     3.6370    -5.3590 c3         1 AGA       0.168000
      7 C4          17.2890     4.4680    -4.5970 c3         1 AGA      -0.140700
      8 C5          18.2220     5.2960    -5.2280 c3         1 AGA      -0.090700
      9 C6          18.3410     5.2690    -6.6130 c3         1 AGA       0.142000
     10 F           19.2320     6.0670    -7.2150 f          1 AGA      -0.199000
     11 C7          17.5510     4.4190    -7.3790 c3         1 AGA      -0.093700
     12 C8          16.6150     3.5940    -6.7480 c3         1 AGA      -0.095700
     13 C9          12.2030     1.9130    -1.3100 c3         1 AGA      -0.166400
     14 C10         11.3010     2.4960    -0.2480 c3         1 AGA       0.597000
     15 O2          10.9980     3.6880    -0.2460 os         1 AGA      -0.510000
     16 O3          10.7140     1.6320     0.6230 os         1 AGA      -0.455000
     17 C11         11.2290     0.3060     0.9230 c3         1 AGA       0.185300
     18 C12         10.5570    -0.7000    -0.0290 c3         1 AGA      -0.103400
     19 C13         11.5770    -1.3320    -0.9770 c3         1 AGA       0.147600
     20 O4          10.9090    -2.2210    -1.8730 os         1 AGA      -0.404000
     21 C14         11.7460    -2.7320    -2.8340 c3         1 AGA       0.158000
     22 C15         12.9990    -3.2790    -2.5410 c3         1 AGA      -0.137700
     23 C16         13.7810    -3.8200    -3.5620 c3         1 AGA      -0.091700
     24 C17         13.2990    -3.8270    -4.8650 c3         1 AGA       0.143000
     25 F1          14.0490    -4.3560    -5.8400 f          1 AGA      -0.199000
     26 C18         12.0480    -3.3010    -5.1670 c3         1 AGA      -0.096700
     27 C19         11.2660    -2.7540    -4.1460 c3         1 AGA      -0.093700
     28 C20         10.8860    -0.0260     2.3920 c3         1 AGA      -0.152400
     29 C21         11.5770     0.9340     3.3430 c3         1 AGA       0.599000
     30 O5          12.2590     1.8750     2.9470 os         1 AGA      -0.508000
     31 O6          11.3620     0.7730     4.6740 os         1 AGA      -0.465000
     32 C22         10.8330    -0.4220     5.3020 c3         1 AGA       0.182300
     33 C23          9.2930    -0.3750     5.3220 c3         1 AGA      -0.130400
     34 C24          8.7250     1.0220     5.0540 c3         1 AGA       0.150600
     35 O7           7.2990     0.9670     5.0640 os         1 AGA      -0.398000
     36 C25          6.7190     2.1830     4.8010 c3         1 AGA       0.150000
     37 C26          7.0870     3.0180     3.7390 c3         1 AGA      -0.140700
     38 C27          6.4290     4.2360     3.5490 c3         1 AGA      -0.090700
     39 C28          5.3970     4.5990     4.4060 c3         1 AGA       0.149000
     40 F2           4.7680     5.7670     4.2250 f          1 AGA      -0.195000
     41 C29          5.0030     3.7620     5.4430 c3         1 AGA      -0.095700
     42 C30          5.6620     2.5470     5.6360 c3         1 AGA      -0.090700
     43 C31         11.4040    -0.5060     6.7360 c3         1 AGA      -0.152400
     44 C32         12.9160    -0.5530     6.7070 c3         1 AGA       0.596000
     45 O8          13.5900    -0.5600     5.6820 os         1 AGA      -0.526000
     46 O9          13.4950    -0.6350     7.9240 oh         1 AGA      -0.612000
     47 H           11.1270     4.0220    -2.2690 ho         1 AGA       0.466000
     48 H1          13.3020     3.7410    -1.6670 h1         1 AGA       0.050700
     49 H2          14.2760     1.5170    -2.8820 hc         1 AGA       0.068200
     50 H3          13.1250     1.9420    -4.1390 hc         1 AGA       0.068200
     51 H4          15.2770     3.7630    -2.9890 h1         1 AGA       0.050700
     52 H5          14.1410     4.2330    -4.2900 h1         1 AGA       0.050700
     53 H6          17.2400     4.4730    -3.5140 hc         1 AGA       0.105700
     54 H7          18.8610     5.9550    -4.6490 hc         1 AGA       0.109700
     55 H8          17.6680     4.4060    -8.4570 hc         1 AGA       0.110700
     56 H9          15.9970     2.9270    -7.3420 hc         1 AGA       0.113700
     57 H10         13.0360     1.3820    -0.8390 hc         1 AGA       0.101200
     58 H11         11.5780     1.2590    -1.9190 hc         1 AGA       0.101200
     59 H12         12.3190     0.3000     0.8290 h1         1 AGA       0.074700
     60 H13         10.0810    -1.5150     0.5300 hc         1 AGA       0.078200
     61 H14          9.7500    -0.2260    -0.6020 hc         1 AGA       0.078200
     62 H15         12.3290    -1.8510    -0.3750 h1         1 AGA       0.051200
     63 H16         12.0910    -0.5800    -1.5720 h1         1 AGA       0.051200
     64 H17         13.3740    -3.3200    -1.5240 hc         1 AGA       0.122700
     65 H18         14.7550    -4.2480    -3.3460 hc         1 AGA       0.110700
     66 H19         11.6900    -3.3260    -6.1910 hc         1 AGA       0.110700
     67 H20         10.2880    -2.3420    -4.3780 hc         1 AGA       0.113700
     68 H21         11.2230    -1.0440     2.6080 hc         1 AGA       0.110700
     69 H22          9.8020     0.0410     2.5280 hc         1 AGA       0.110700
     70 H23         11.1780    -1.3080     4.7570 h1         1 AGA       0.078700
     71 H24          8.9100    -1.0650     4.5580 hc         1 AGA       0.074200
     72 H25          8.8960    -0.7710     6.2650 hc         1 AGA       0.074200
     73 H26          9.0640     1.3600     4.0750 h1         1 AGA       0.064700
     74 H27          9.0810     1.7210     5.8190 h1         1 AGA       0.064700
     75 H28          7.8660     2.7420     3.0340 hc         1 AGA       0.116700
     76 H29          6.7130     4.8990     2.7370 hc         1 AGA       0.114700
     77 H30          4.1880     4.0610     6.0940 hc         1 AGA       0.112700
     78 H31          5.3600     1.8880     6.4460 hc         1 AGA       0.114700
     79 H32         11.0470    -1.4250     7.2170 hc         1 AGA       0.095700
     80 H33         11.0860     0.3590     7.3290 hc         1 AGA       0.095700
     81 H34         12.8980    -0.6500     8.6950 ho         1 AGA       0.473000
@<TRIPOS>BOND
     1     1     2 1   
     2     1    47 1   
     3     2     3 1   
     4     2    13 1   
     5     2    48 1   
     6     3     4 1   
     7     3    49 1   
     8     3    50 1   
     9     4     5 1   
    10     4    51 1   
    11     4    52 1   
    12     5     6 1   
    13     6     7 1   
    14     6     7 1   
    15     6    12 1   
    16     7     8 1   
    17     7    53 1   
    18     8     9 1   
    19     8     9 1   
    20     8    54 1   
    21     9    10 1   
    22     9    11 1   
    23    11    12 1   
    24    11    12 1   
    25    11    55 1   
    26    12    56 1   
    27    13    14 1   
    28    13    57 1   
    29    13    58 1   
    30    14    15 1   
    31    14    15 1   
    32    14    16 1   
    33    16    17 1   
    34    17    18 1   
    35    17    28 1   
    36    17    59 1   
    37    18    19 1   
    38    18    60 1   
    39    18    61 1   
    40    19    20 1   
    41    19    62 1   
    42    19    63 1   
    43    20    21 1   
    44    21    22 1   
    45    21    22 1   
    46    21    27 1   
    47    22    23 1   
    48    22    64 1   
    49    23    24 1   
    50    23    24 1   
    51    23    65 1   
    52    24    25 1   
    53    24    26 1   
    54    26    27 1   
    55    26    27 1   
    56    26    66 1   
    57    27    67 1   
    58    28    29 1   
    59    28    68 1   
    60    28    69 1   
    61    29    30 1   
    62    29    30 1   
    63    29    31 1   
    64    31    32 1   
    65    32    33 1   
    66    32    43 1   
    67    32    70 1   
    68    33    34 1   
    69    33    71 1   
    70    33    72 1   
    71    34    35 1   
    72    34    73 1   
    73    34    74 1   
    74    35    36 1   
    75    36    37 1   
    76    36    37 1   
    77    36    42 1   
    78    37    38 1   
    79    37    75 1   
    80    38    39 1   
    81    38    39 1   
    82    38    76 1   
    83    39    40 1   
    84    39    41 1   
    85    41    42 1   
    86    41    42 1   
    87    41    77 1   
    88    42    78 1   
    89    43    44 1   
    90    43    79 1   
    91    43    80 1   
    92    44    45 1   
    93    44    45 1   
    94    44    46 1   
    95    46    81 1   
@<TRIPOS>SUBSTRUCTURE
     1 AGA         1 TEMP              0 ****  ****    0 ROOT
