@<TRIPOS>MOLECULE
AJO
   57    59     1     0     0
SMALL
abcg2


@<TRIPOS>ATOM
      1 O            0.9040     0.1910    -0.0270 oh         1 AJO      -0.666000
      2 C            2.3330     0.0880     0.0150 c3         1 AJO       0.170300
      3 C1           2.6690    -1.4330     0.0680 c3         1 AJO      -0.100700
      4 C2           4.1370    -1.6440     0.0340 c3         1 AJO      -0.098100
      5 C3           2.1980    -2.1840     1.2910 c3         1 AJO      -0.098100
      6 C4           2.8970     0.9100    -1.1960 c3         1 AJO      -0.081400
      7 C5           4.3870     1.2350    -1.0730 c3         1 AJO       0.594000
      8 O1           4.9570     1.2790    -0.0050 os         1 AJO      -0.533000
      9 O2           5.0180     1.4380    -2.2870 os         1 AJO      -0.480000
     10 C6           6.5010     1.4840    -2.2460 c3         1 AJO       0.173300
     11 C7           7.0090     0.0050    -2.2570 c3         1 AJO      -0.077700
     12 C8           8.4610    -0.1680    -2.3200 c3         1 AJO      -0.098600
     13 C9           6.7280    -0.8160    -1.0560 c3         1 AJO      -0.098600
     14 C10          7.0520     2.3370    -3.4590 c3         1 AJO      -0.089400
     15 C11          8.5640     2.6530    -3.3480 c3         1 AJO       0.590000
     16 O3           9.1260     2.7260    -2.2740 os         1 AJO      -0.534000
     17 O4           9.2270     2.7990    -4.5580 os         1 AJO      -0.476000
     18 C12         10.7320     2.8870    -4.5220 c3         1 AJO       0.185300
     19 C13         11.3540     1.4440    -4.6110 c3         1 AJO      -0.063700
     20 C14         12.8500     1.2780    -4.6400 c3         1 AJO      -0.095100
     21 C15         11.0020     0.6330    -3.4060 c3         1 AJO      -0.095100
     22 C16         11.2240     3.7600    -5.7050 c3         1 AJO      -0.147400
     23 C17         12.7200     4.0440    -5.6390 c3         1 AJO       0.588000
     24 O5          13.4000     3.9650    -4.6310 os         1 AJO      -0.485000
     25 O6          13.2770     4.4260    -6.8100 oh         1 AJO      -0.626000
     26 H            0.5620    -0.2810     0.7530 ho         1 AJO       0.447000
     27 H1           2.6630     0.5660     0.9450 h1         1 AJO       0.061700
     28 H2           2.2520    -1.9140    -0.8290 hc         1 AJO       0.061700
     29 H3           4.6730    -1.0480     0.7860 hc         1 AJO       0.039867
     30 H4           4.2490    -1.3270    -0.9860 hc         1 AJO       0.039867
     31 H5           4.5220    -2.6660     0.0670 hc         1 AJO       0.039867
     32 H6           2.5850    -1.7110     2.1990 hc         1 AJO       0.039867
     33 H7           2.5880    -3.2110     1.2620 hc         1 AJO       0.039867
     34 H8           1.1140    -2.2390     1.3230 hc         1 AJO       0.039867
     35 H9           2.3810     1.8780    -1.2300 hc         1 AJO       0.095200
     36 H10          2.6670     0.3940    -2.1350 hc         1 AJO       0.095200
     37 H11          6.8090     1.9880    -1.3220 h1         1 AJO       0.107700
     38 H12          6.5610    -0.4870    -3.1350 hc         1 AJO       0.057700
     39 H13          8.9690     0.4180    -1.5430 hc         1 AJO       0.042533
     40 H14          8.5320     0.1350    -3.3430 hc         1 AJO       0.042533
     41 H15          8.8360    -1.1950    -2.2730 hc         1 AJO       0.042533
     42 H16          6.9430    -0.3290    -0.1050 hc         1 AJO       0.042533
     43 H17          7.1230    -1.8370    -1.0710 hc         1 AJO       0.042533
     44 H18          5.7130    -0.9160    -1.2400 hc         1 AJO       0.042533
     45 H19          6.5300     3.3020    -3.4770 hc         1 AJO       0.090700
     46 H20          6.8160     1.8250    -4.3990 hc         1 AJO       0.090700
     47 H21         11.0160     3.3800    -3.5850 h1         1 AJO       0.097700
     48 H22         10.9020     0.9530    -5.4870 hc         1 AJO       0.056700
     49 H23         13.2820     1.7730    -3.7640 hc         1 AJO       0.042867
     50 H24         13.2690     1.6380    -5.5740 hc         1 AJO       0.042867
     51 H25         13.1230     0.2190    -4.5660 hc         1 AJO       0.042867
     52 H26         11.1790     1.1180    -2.4430 hc         1 AJO       0.042867
     53 H27         11.3420    -0.4050    -3.3900 hc         1 AJO       0.042867
     54 H28          9.9840     0.5810    -3.6110 hc         1 AJO       0.042867
     55 H29         10.7190     4.7300    -5.6970 hc         1 AJO       0.083200
     56 H30         10.9680     3.2590    -6.6470 hc         1 AJO       0.083200
     57 H31         12.6590     4.6450    -7.5280 ho         1 AJO       0.462000
@<TRIPOS>BOND
     1     1     2 1   
     2     1    26 1   
     3     2     3 1   
     4     2     6 1   
     5     2    27 1   
     6     3     4 1   
     7     3     5 1   
     8     3    28 1   
     9     4    29 1   
    10     4    30 1   
    11     4    31 1   
    12     5    32 1   
    13     5    33 1   
    14     5    34 1   
    15     6     7 1   
    16     6    35 1   
    17     6    36 1   
    18     7     8 1   
    19     7     8 1   
    20     7     9 1   
    21     9    10 1   
    22    10    11 1   
    23    10    14 1   
    24    10    37 1   
    25    11    12 1   
    26    11    13 1   
    27    11    38 1   
    28    12    39 1   
    29    12    40 1   
    30    12    41 1   
    31    13    42 1   
    32    13    43 1   
    33    13    44 1   
    34    14    15 1   
    35    14    45 1   
    36    14    46 1   
    37    15    16 1   
    38    15    16 1   
    39    15    17 1   
    40    17    18 1   
    41    18    19 1   
    42    18    22 1   
    43    18    47 1   
    44    19    20 1   
    45    19    21 1   
    46    19    48 1   
    47    20    49 1   
    48    20    50 1   
    49    20    51 1   
    50    21    52 1   
    51    21    53 1   
    52    21    54 1   
    53    22    23 1   
    54    22    55 1   
    55    22    56 1   
    56    23    24 1   
    57    23    24 1   
    58    23    25 1   
    59    25    57 1   
@<TRIPOS>SUBSTRUCTURE
     1 AJO         1 TEMP              0 ****  ****    0 ROOT
