@<TRIPOS>MOLECULE
AKU
   87   101     1     0     0
SMALL
abcg2


@<TRIPOS>ATOM
      1 O            7.7350    -2.2170     2.5400 oh         1 AKU      -0.666000
      2 C            9.0850    -1.9450     2.8800 c3         1 AKU       0.178300
      3 C1           9.1070    -0.8430     3.9400 c3         1 AKU      -0.073400
      4 C2           9.2790    -1.4770     5.3020 c3         1 AKU      -0.043400
      5 C3           9.3020    -0.5070     6.4460 c3         1 AKU      -0.069000
      6 C4           9.5210    -0.9960     7.7300 c3         1 AKU      -0.088700
      7 C5           9.5300    -0.1270     8.8250 c3         1 AKU      -0.068000
      8 C6           9.7290    -0.6600    10.2050 c3         1 AKU      -0.061100
      9 C7           9.3330     1.2440     8.6320 c3         1 AKU      -0.093700
     10 C8           9.1040     1.7360     7.3600 c3         1 AKU      -0.085700
     11 C9           9.0890     0.8600     6.2830 c3         1 AKU      -0.091700
     12 C10          9.8120    -1.4040     1.6880 c3         1 AKU      -0.158400
     13 C11          9.8920    -2.2600     0.4690 c3         1 AKU       0.599000
     14 O1           9.3920    -3.3810     0.4660 os         1 AKU      -0.521000
     15 O2          10.5130    -1.7670    -0.6320 os         1 AKU      -0.459000
     16 C12         11.1530    -0.4670    -0.9360 c3         1 AKU       0.172300
     17 C13         10.5250     0.6790    -0.1630 c3         1 AKU      -0.104400
     18 C14         11.4120     0.9720     1.0400 c3         1 AKU      -0.042400
     19 C15         10.7450     1.7640     2.1200 c3         1 AKU      -0.076000
     20 C16         11.4600     2.0100     3.2960 c3         1 AKU      -0.088700
     21 C17         10.9260     2.8360     4.2840 c3         1 AKU      -0.064000
     22 C18         11.7150     3.1250     5.5240 c3         1 AKU      -0.063100
     23 C19          9.6440     3.3780     4.1070 c3         1 AKU      -0.089700
     24 C20          8.8880     3.0600     2.9840 c3         1 AKU      -0.083700
     25 C21          9.4390     2.2590     1.9980 c3         1 AKU      -0.088700
     26 C22         10.8450    -0.1360    -2.3820 c3         1 AKU      -0.125400
     27 C23         11.4830    -1.0210    -3.4170 c3         1 AKU       0.600000
     28 O3          12.1840    -1.9730    -3.1010 os         1 AKU      -0.509000
     29 O4          11.1700    -0.7920    -4.7280 os         1 AKU      -0.452000
     30 C24         10.7230     0.4730    -5.2920 c3         1 AKU       0.178300
     31 C25          9.1970     0.4940    -5.4020 c3         1 AKU      -0.099400
     32 C26          8.5050     0.0950    -4.1150 c3         1 AKU      -0.050400
     33 C27          7.0250     0.0420    -4.0780 c3         1 AKU      -0.074000
     34 C28          6.3820    -0.3360    -2.8870 c3         1 AKU      -0.079700
     35 C29          4.9920    -0.3770    -2.8430 c3         1 AKU      -0.065000
     36 C30          4.2680    -0.7660    -1.5920 c3         1 AKU      -0.064100
     37 C31          4.2700    -0.0440    -3.9980 c3         1 AKU      -0.093700
     38 C32          4.9180     0.3320    -5.1710 c3         1 AKU      -0.089700
     39 C33          6.2930     0.3740    -5.2080 c3         1 AKU      -0.097700
     40 C34         11.2860     0.6140    -6.7250 c3         1 AKU      -0.139400
     41 C35         12.7960     0.6560    -6.6940 c3         1 AKU       0.586000
     42 O5          13.4600     0.6320    -5.6860 os         1 AKU      -0.502000
     43 O6          13.3590     0.7760    -7.9230 oh         1 AKU      -0.618000
     44 H            7.7720    -2.8500     1.7950 ho         1 AKU       0.461000
     45 H1           9.5810    -2.8540     3.2230 h1         1 AKU       0.052700
     46 H2           9.9610    -0.1720     3.8010 hc         1 AKU       0.055200
     47 H3           8.2000    -0.2230     3.8830 hc         1 AKU       0.055200
     48 H4          10.2340    -2.0200     5.2930 hc         1 AKU       0.057200
     49 H5           8.4690    -2.1950     5.4530 hc         1 AKU       0.057200
     50 H6           9.6710    -2.0640     7.8720 hc         1 AKU       0.090700
     51 H7           9.8540    -1.7470    10.1940 hc         1 AKU       0.044033
     52 H8           8.8530    -0.4230    10.8150 hc         1 AKU       0.044033
     53 H9          10.6230    -0.2140    10.6470 hc         1 AKU       0.044033
     54 H10          9.3480     1.9340     9.4700 hc         1 AKU       0.090700
     55 H11          8.9690     2.8000     7.1900 hc         1 AKU       0.090700
     56 H12          8.9180     1.2710     5.2980 hc         1 AKU       0.094700
     57 H13         10.8270    -1.2690     2.0420 hc         1 AKU       0.091200
     58 H14          9.2470    -0.5060     1.4770 hc         1 AKU       0.091200
     59 H15         12.2310    -0.5570    -0.7920 h1         1 AKU       0.078700
     60 H16         10.4290     1.6190    -0.7170 hc         1 AKU       0.064700
     61 H17          9.4710     0.4240    -0.0040 hc         1 AKU       0.064700
     62 H18         12.2900     1.5120     0.6760 hc         1 AKU       0.051200
     63 H19         11.8610     0.0680     1.4600 hc         1 AKU       0.051200
     64 H20         12.4310     1.5370     3.4500 hc         1 AKU       0.090700
     65 H21         12.6770     2.6040     5.5190 hc         1 AKU       0.045700
     66 H22         11.1910     2.7990     6.4200 hc         1 AKU       0.045700
     67 H23         11.8940     4.1990     5.5980 hc         1 AKU       0.045700
     68 H24          9.1960     3.9990     4.8770 hc         1 AKU       0.093700
     69 H25          7.8710     3.4250     2.8690 hc         1 AKU       0.093700
     70 H26          8.8100     2.0230     1.1450 hc         1 AKU       0.093700
     71 H27         11.0690     0.9130    -2.6010 hc         1 AKU       0.099200
     72 H28          9.7820    -0.3190    -2.3670 hc         1 AKU       0.099200
     73 H29         11.0800     1.3110    -4.6820 h1         1 AKU       0.077700
     74 H30          8.8740     1.5030    -5.6870 hc         1 AKU       0.063700
     75 H31          8.8790    -0.2000    -6.1890 hc         1 AKU       0.063700
     76 H32          8.7690     0.8580    -3.3750 hc         1 AKU       0.056200
     77 H33          8.8240    -0.9230    -3.8600 hc         1 AKU       0.056200
     78 H34          6.9640    -0.6000    -2.0010 hc         1 AKU       0.120700
     79 H35          4.9590    -0.9910    -0.7730 hc         1 AKU       0.046700
     80 H36          3.6610    -1.6570    -1.7770 hc         1 AKU       0.046700
     81 H37          3.6220     0.0570    -1.2700 hc         1 AKU       0.046700
     82 H38          3.1870    -0.0770    -3.9920 hc         1 AKU       0.089700
     83 H39          4.3680     0.5950    -6.0660 hc         1 AKU       0.088700
     84 H40          6.7880     0.6660    -6.1270 hc         1 AKU       0.082700
     85 H41         10.9200     1.5470    -7.1740 hc         1 AKU       0.091200
     86 H42         10.9630    -0.2290    -7.3480 hc         1 AKU       0.091200
     87 H43         12.7540     0.8100    -8.6850 ho         1 AKU       0.467000
@<TRIPOS>BOND
     1     1     2 1   
     2     1    44 1   
     3     2     3 1   
     4     2    12 1   
     5     2    45 1   
     6     3     4 1   
     7     3    46 1   
     8     3    47 1   
     9     4     5 1   
    10     4    48 1   
    11     4    49 1   
    12     5     6 1   
    13     5     6 1   
    14     5    11 1   
    15     6     7 1   
    16     6    50 1   
    17     7     8 1   
    18     7     9 1   
    19     7     9 1   
    20     8    51 1   
    21     8    52 1   
    22     8    53 1   
    23     9    10 1   
    24     9    54 1   
    25    10    11 1   
    26    10    11 1   
    27    10    55 1   
    28    11    56 1   
    29    12    13 1   
    30    12    57 1   
    31    12    58 1   
    32    13    14 1   
    33    13    14 1   
    34    13    15 1   
    35    15    16 1   
    36    16    17 1   
    37    16    26 1   
    38    16    59 1   
    39    17    18 1   
    40    17    60 1   
    41    17    61 1   
    42    18    19 1   
    43    18    62 1   
    44    18    63 1   
    45    19    20 1   
    46    19    20 1   
    47    19    25 1   
    48    20    21 1   
    49    20    64 1   
    50    21    22 1   
    51    21    23 1   
    52    21    23 1   
    53    22    65 1   
    54    22    66 1   
    55    22    67 1   
    56    23    24 1   
    57    23    68 1   
    58    24    25 1   
    59    24    25 1   
    60    24    69 1   
    61    25    70 1   
    62    26    27 1   
    63    26    71 1   
    64    26    72 1   
    65    27    28 1   
    66    27    28 1   
    67    27    29 1   
    68    29    30 1   
    69    30    31 1   
    70    30    40 1   
    71    30    73 1   
    72    31    32 1   
    73    31    74 1   
    74    31    75 1   
    75    32    33 1   
    76    32    76 1   
    77    32    77 1   
    78    33    34 1   
    79    33    34 1   
    80    33    39 1   
    81    34    35 1   
    82    34    78 1   
    83    35    36 1   
    84    35    37 1   
    85    35    37 1   
    86    36    79 1   
    87    36    80 1   
    88    36    81 1   
    89    37    38 1   
    90    37    82 1   
    91    38    39 1   
    92    38    39 1   
    93    38    83 1   
    94    39    84 1   
    95    40    41 1   
    96    40    85 1   
    97    40    86 1   
    98    41    42 1   
    99    41    42 1   
   100    41    43 1   
   101    43    87 1   
@<TRIPOS>SUBSTRUCTURE
     1 AKU         1 TEMP              0 ****  ****    0 ROOT
