@<TRIPOS>MOLECULE
AEM
   81    95     1     0     0
SMALL
abcg2


@<TRIPOS>ATOM
      1 O           12.1390     2.6820    -3.2570 oh         1 AEM      -0.669000
      2 C           13.1500     2.4300    -2.2800 c3         1 AEM       0.183300
      3 C1          14.3620     1.8460    -3.0020 c3         1 AEM      -0.083400
      4 C2          15.1080     2.9420    -3.7580 c3         1 AEM       0.155600
      5 O1          16.1900     2.3410    -4.4720 os         1 AEM      -0.408000
      6 C3          17.0220     3.2210    -5.1130 c3         1 AEM       0.180000
      7 C4          17.5210     2.8050    -6.3490 c3         1 AEM      -0.119700
      8 C5          18.4800     3.5700    -7.0170 c3         1 AEM      -0.058200
      9 C6          18.8980     4.7860    -6.4800 c3         1 AEM      -0.127700
     10 C7          18.3940     5.2100    -5.2530 c3         1 AEM      -0.058200
     11 C8          17.4690     4.4230    -4.5630 c3         1 AEM      -0.164700
     12 C9          12.6250     1.4580    -1.2330 c3         1 AEM      -0.166400
     13 C10         11.4540     2.0640    -0.5050 c3         1 AEM       0.598000
     14 O2          10.9460     3.1320    -0.8360 os         1 AEM      -0.513000
     15 O3          10.9030     1.3200     0.4770 os         1 AEM      -0.461000
     16 C11         11.4940     0.1000     0.9760 c3         1 AEM       0.181300
     17 C12         10.9020    -1.1030     0.2070 c3         1 AEM      -0.099400
     18 C13          9.5230    -0.8300    -0.4140 c3         1 AEM       0.154600
     19 O4           9.0660    -2.0170    -1.0640 os         1 AEM      -0.406000
     20 C14          7.9090    -1.8690    -1.7860 c3         1 AEM       0.177000
     21 C15          7.0490    -2.9680    -1.7860 c3         1 AEM      -0.116700
     22 C16          5.9030    -2.9700    -2.5840 c3         1 AEM      -0.058200
     23 C17          5.5800    -1.8480    -3.3430 c3         1 AEM      -0.124700
     24 C18          6.4300    -0.7450    -3.3430 c3         1 AEM      -0.058200
     25 C19          7.6000    -0.7600    -2.5780 c3         1 AEM      -0.163700
     26 C20         11.1180     0.0060     2.4450 c3         1 AEM      -0.148400
     27 C21         11.5310     1.1920     3.2860 c3         1 AEM       0.599000
     28 O5          12.1500     2.1420     2.8160 os         1 AEM      -0.511000
     29 O6          11.1120     1.2180     4.5820 os         1 AEM      -0.452000
     30 C22         10.6750     0.0650     5.3560 c3         1 AEM       0.181300
     31 C23          9.1320     0.0780     5.4150 c3         1 AEM      -0.105400
     32 C24          8.5130    -0.7490     4.2920 c3         1 AEM       0.152600
     33 O7           7.0910    -0.7540     4.3340 os         1 AEM      -0.403000
     34 C25          6.5460    -1.4350     3.2660 c3         1 AEM       0.169000
     35 C26          5.4480    -0.8520     2.6330 c3         1 AEM      -0.112700
     36 C27          4.6940    -1.5950     1.7220 c3         1 AEM      -0.057200
     37 C28          5.0850    -2.8880     1.3780 c3         1 AEM      -0.120700
     38 C29          6.2220    -3.4460     1.9570 c3         1 AEM      -0.057200
     39 C30          6.9500    -2.7220     2.9020 c3         1 AEM      -0.163700
     40 C31         11.2650     0.1750     6.7840 c3         1 AEM      -0.152400
     41 C32         12.7760     0.1280     6.7540 c3         1 AEM       0.587000
     42 O8          13.4430     0.0100     5.7290 os         1 AEM      -0.512000
     43 O9          13.3600     0.1700     7.9700 oh         1 AEM      -0.611000
     44 H           11.4010     3.1230    -2.7850 ho         1 AEM       0.465000
     45 H1          13.4120     3.3820    -1.8020 h1         1 AEM       0.050700
     46 H2          15.0510     1.3710    -2.2910 hc         1 AEM       0.068200
     47 H3          14.0530     1.0650    -3.7080 hc         1 AEM       0.068200
     48 H4          15.4650     3.6670    -3.0190 h1         1 AEM       0.049200
     49 H5          14.4420     3.4420    -4.4690 h1         1 AEM       0.049200
     50 H6          17.1620     1.8810    -6.7950 hc         1 AEM       0.107700
     51 H7          18.9110     3.2110    -7.9470 hc         1 AEM       0.092200
     52 H8          19.6190     5.3990    -7.0140 hc         1 AEM       0.092700
     53 H9          18.7400     6.1440    -4.8170 hc         1 AEM       0.092200
     54 H10         17.1400     4.7580    -3.5860 hc         1 AEM       0.099700
     55 H11         13.4300     1.2530    -0.5210 hc         1 AEM       0.101700
     56 H12         12.2910     0.5340    -1.7170 hc         1 AEM       0.101700
     57 H13         12.5830     0.1160     0.9210 h1         1 AEM       0.079700
     58 H14         11.5930    -1.3800    -0.5980 hc         1 AEM       0.073700
     59 H15         10.8510    -1.9930     0.8470 hc         1 AEM       0.073700
     60 H16          9.6290    -0.0120    -1.1300 h1         1 AEM       0.049200
     61 H17          8.7990    -0.5530     0.3600 h1         1 AEM       0.049200
     62 H18          7.2700    -3.8250    -1.1560 hc         1 AEM       0.108700
     63 H19          5.2700    -3.8520    -2.6240 hc         1 AEM       0.093200
     64 H20          4.6730    -1.8360    -3.9410 hc         1 AEM       0.093700
     65 H21          6.1990     0.1200    -3.9590 hc         1 AEM       0.093200
     66 H22          8.2590     0.0980    -2.6480 hc         1 AEM       0.097700
     67 H23         11.4940    -0.9250     2.8720 hc         1 AEM       0.109700
     68 H24         10.0480     0.0230     2.3890 hc         1 AEM       0.109700
     69 H25         11.0580    -0.8600     4.9150 h1         1 AEM       0.075700
     70 H26          8.7710    -0.3290     6.3660 hc         1 AEM       0.080700
     71 H27          8.7570     1.1060     5.3450 hc         1 AEM       0.080700
     72 H28          8.9390    -1.7570     4.3270 h1         1 AEM       0.039700
     73 H29          8.7250    -0.2750     3.3550 h1         1 AEM       0.039700
     74 H30          5.1640     0.1730     2.8570 hc         1 AEM       0.110700
     75 H31          3.7830    -1.1780     1.3000 hc         1 AEM       0.095700
     76 H32          4.5040    -3.4610     0.6610 hc         1 AEM       0.096700
     77 H33          6.5200    -4.4600     1.7060 hc         1 AEM       0.095700
     78 H34          7.7970    -3.2080     3.3710 hc         1 AEM       0.094700
     79 H35         10.9210    -0.6820     7.3770 hc         1 AEM       0.096200
     80 H36         10.9460     1.1030     7.2700 hc         1 AEM       0.096200
     81 H37         12.7670     0.2410     8.7410 ho         1 AEM       0.469000
@<TRIPOS>BOND
     1     1     2 1   
     2     1    44 1   
     3     2     3 1   
     4     2    12 1   
     5     2    45 1   
     6     3     4 1   
     7     3    46 1   
     8     3    47 1   
     9     4     5 1   
    10     4    48 1   
    11     4    49 1   
    12     5     6 1   
    13     6     7 1   
    14     6     7 1   
    15     6    11 1   
    16     7     8 1   
    17     7    50 1   
    18     8     9 1   
    19     8     9 1   
    20     8    51 1   
    21     9    10 1   
    22     9    52 1   
    23    10    11 1   
    24    10    11 1   
    25    10    53 1   
    26    11    54 1   
    27    12    13 1   
    28    12    55 1   
    29    12    56 1   
    30    13    14 1   
    31    13    14 1   
    32    13    15 1   
    33    15    16 1   
    34    16    17 1   
    35    16    26 1   
    36    16    57 1   
    37    17    18 1   
    38    17    58 1   
    39    17    59 1   
    40    18    19 1   
    41    18    60 1   
    42    18    61 1   
    43    19    20 1   
    44    20    21 1   
    45    20    21 1   
    46    20    25 1   
    47    21    22 1   
    48    21    62 1   
    49    22    23 1   
    50    22    23 1   
    51    22    63 1   
    52    23    24 1   
    53    23    64 1   
    54    24    25 1   
    55    24    25 1   
    56    24    65 1   
    57    25    66 1   
    58    26    27 1   
    59    26    67 1   
    60    26    68 1   
    61    27    28 1   
    62    27    28 1   
    63    27    29 1   
    64    29    30 1   
    65    30    31 1   
    66    30    40 1   
    67    30    69 1   
    68    31    32 1   
    69    31    70 1   
    70    31    71 1   
    71    32    33 1   
    72    32    72 1   
    73    32    73 1   
    74    33    34 1   
    75    34    35 1   
    76    34    35 1   
    77    34    39 1   
    78    35    36 1   
    79    35    74 1   
    80    36    37 1   
    81    36    37 1   
    82    36    75 1   
    83    37    38 1   
    84    37    76 1   
    85    38    39 1   
    86    38    39 1   
    87    38    77 1   
    88    39    78 1   
    89    40    41 1   
    90    40    79 1   
    91    40    80 1   
    92    41    42 1   
    93    41    42 1   
    94    41    43 1   
    95    43    81 1   
@<TRIPOS>SUBSTRUCTURE
     1 AEM         1 TEMP              0 ****  ****    0 ROOT
