@<TRIPOS>MOLECULE
AGI
   99   113     1     0     0
SMALL
abcg2


@<TRIPOS>ATOM
      1 O           16.1530     1.8520     2.5730 oh         1 AGI      -0.668000
      2 C           15.5950     0.8830     3.4590 c3         1 AGI       0.184300
      3 C1          16.6740     0.4510     4.4570 c3         1 AGI      -0.079400
      4 C2          16.0750     0.1780     5.8360 c3         1 AGI      -0.085400
      5 C3          17.1530    -0.2450     6.8300 c3         1 AGI      -0.083400
      6 C4          16.5620    -0.4890     8.2170 c3         1 AGI       0.150600
      7 O1          17.6210    -0.8930     9.0940 os         1 AGI      -0.402000
      8 C5          17.2220    -1.0520    10.3940 c3         1 AGI       0.168000
      9 C6          16.1420    -1.8530    10.7720 c3         1 AGI      -0.143700
     10 C7          15.8020    -1.9690    12.1230 c3         1 AGI      -0.091700
     11 C8          16.5570    -1.3040    13.0820 c3         1 AGI       0.141000
     12 F           16.2200    -1.4060    14.3750 f          1 AGI      -0.199000
     13 C9          17.6600    -0.5410    12.7190 c3         1 AGI      -0.092700
     14 C10         17.9990    -0.4230    11.3700 c3         1 AGI      -0.095700
     15 C11         15.1480    -0.3070     2.6350 c3         1 AGI      -0.170400
     16 C12         14.0280     0.0840     1.6850 c3         1 AGI       0.594000
     17 O2          13.6390     1.2420     1.5520 os         1 AGI      -0.513000
     18 O3          13.5260    -0.9010     0.8920 os         1 AGI      -0.459000
     19 C13         13.7910    -2.2720     1.2090 c3         1 AGI       0.181300
     20 C14         14.1420    -3.0120    -0.0890 c3         1 AGI      -0.092400
     21 C15         15.3170    -3.9610     0.1640 c3         1 AGI      -0.088400
     22 C16         15.6960    -4.7310    -1.0920 c3         1 AGI      -0.082400
     23 C17         16.8760    -5.6650    -0.8300 c3         1 AGI       0.150600
     24 O4          17.1650    -6.3680    -2.0440 os         1 AGI      -0.403000
     25 C18         18.2690    -7.1730    -1.9580 c3         1 AGI       0.166000
     26 C19         18.4390    -8.1360    -0.9600 c3         1 AGI      -0.141700
     27 C20         19.5920    -8.9250    -0.9460 c3         1 AGI      -0.090700
     28 C21         20.5500    -8.7620    -1.9410 c3         1 AGI       0.142000
     29 F1          21.6610    -9.5100    -1.9170 f          1 AGI      -0.199000
     30 C22         20.3680    -7.8380    -2.9620 c3         1 AGI      -0.093700
     31 C23         19.2170    -7.0470    -2.9760 c3         1 AGI      -0.094700
     32 C24         12.5660    -2.8660     1.8770 c3         1 AGI      -0.151400
     33 C25         12.1810    -2.1880     3.1980 c3         1 AGI       0.600000
     34 O5          12.6560    -1.1390     3.6160 os         1 AGI      -0.517000
     35 O6          11.2080    -2.7700     3.9370 os         1 AGI      -0.458000
     36 C26         10.7630    -4.0900     3.6430 c3         1 AGI       0.179300
     37 C27          9.2350    -4.0240     3.6430 c3         1 AGI      -0.096400
     38 C28          8.6880    -5.1560     2.7860 c3         1 AGI      -0.079400
     39 C29          7.1700    -5.1630     2.7650 c3         1 AGI      -0.086400
     40 C30          6.6560    -6.3250     1.9200 c3         1 AGI       0.152600
     41 O7           5.2270    -6.3020     1.9610 os         1 AGI      -0.402000
     42 C31          4.6480    -7.2510     1.1620 c3         1 AGI       0.162000
     43 C32          4.9700    -8.6090     1.2260 c3         1 AGI      -0.141700
     44 C33          4.3260    -9.5160     0.3810 c3         1 AGI      -0.090700
     45 C34          3.3510    -9.0610    -0.5010 c3         1 AGI       0.146000
     46 F2           2.7440    -9.9300    -1.3190 f          1 AGI      -0.196000
     47 C35          2.9940    -7.7180    -0.5400 c3         1 AGI      -0.092700
     48 C36          3.6390    -6.8110     0.3020 c3         1 AGI      -0.091700
     49 C37         11.3520    -5.0670     4.6690 c3         1 AGI      -0.150400
     50 C38         12.8730    -5.0760     4.6910 c3         1 AGI       0.590000
     51 O8          13.6100    -4.3450     4.0370 os         1 AGI      -0.517000
     52 O9          13.4140    -5.9990     5.5060 oh         1 AGI      -0.614000
     53 H           15.4040     2.1470     2.0100 ho         1 AGI       0.462000
     54 H1          14.7460     1.3440     3.9780 h1         1 AGI       0.047700
     55 H2          17.1830    -0.4550     4.1010 hc         1 AGI       0.059700
     56 H3          17.4450     1.2250     4.5330 hc         1 AGI       0.059700
     57 H4          15.3060    -0.6010     5.7690 hc         1 AGI       0.049200
     58 H5          15.5810     1.0880     6.1990 hc         1 AGI       0.049200
     59 H6          17.9330     0.5240     6.8900 hc         1 AGI       0.058200
     60 H7          17.6540    -1.1560     6.4780 hc         1 AGI       0.058200
     61 H8          15.8000    -1.2720     8.1420 h1         1 AGI       0.042200
     62 H9          16.1010     0.4360     8.5870 h1         1 AGI       0.042200
     63 H10         15.5700    -2.4080    10.0350 hc         1 AGI       0.103700
     64 H11         14.9570    -2.5750    12.4340 hc         1 AGI       0.107700
     65 H12         18.2440    -0.0400    13.4850 hc         1 AGI       0.110700
     66 H13         18.8620     0.1690    11.0770 hc         1 AGI       0.115700
     67 H14         14.8450    -1.0840     3.3400 hc         1 AGI       0.100200
     68 H15         15.9800    -0.6840     2.0290 hc         1 AGI       0.100200
     69 H16         14.6400    -2.3920     1.8790 h1         1 AGI       0.074700
     70 H17         13.2810    -3.5840    -0.4560 hc         1 AGI       0.063200
     71 H18         14.4100    -2.3000    -0.8790 hc         1 AGI       0.063200
     72 H19         15.0610    -4.6620     0.9680 hc         1 AGI       0.052700
     73 H20         16.1830    -3.3800     0.5090 hc         1 AGI       0.052700
     74 H21         15.9480    -4.0330    -1.9000 hc         1 AGI       0.059200
     75 H22         14.8380    -5.3130    -1.4480 hc         1 AGI       0.059200
     76 H23         16.6030    -6.3640    -0.0320 h1         1 AGI       0.044200
     77 H24         17.7490    -5.0780    -0.5170 h1         1 AGI       0.044200
     78 H25         17.6810    -8.2990    -0.2010 hc         1 AGI       0.104700
     79 H26         19.7500    -9.6670    -0.1700 hc         1 AGI       0.108700
     80 H27         21.1210    -7.7350    -3.7360 hc         1 AGI       0.110700
     81 H28         19.0650    -6.3240    -3.7730 hc         1 AGI       0.114700
     82 H29         12.8270    -3.9170     2.0280 hc         1 AGI       0.110700
     83 H30         11.7000    -2.8200     1.2110 hc         1 AGI       0.110700
     84 H31         11.0530    -4.4070     2.6440 h1         1 AGI       0.076700
     85 H32          8.8460    -4.0670     4.6670 hc         1 AGI       0.066700
     86 H33          8.8970    -3.0600     3.2320 hc         1 AGI       0.066700
     87 H34          9.0600    -6.1140     3.1650 hc         1 AGI       0.043200
     88 H35          9.0670    -5.0480     1.7600 hc         1 AGI       0.043200
     89 H36          6.7900    -4.2130     2.3690 hc         1 AGI       0.063200
     90 H37          6.7830    -5.2470     3.7870 hc         1 AGI       0.063200
     91 H38          7.0450    -7.2610     2.3360 h1         1 AGI       0.040700
     92 H39          7.0090    -6.2140     0.8860 h1         1 AGI       0.040700
     93 H40          5.6990    -8.9810     1.9380 hc         1 AGI       0.101700
     94 H41          4.5720   -10.5720     0.4060 hc         1 AGI       0.110700
     95 H42          2.2210    -7.3870    -1.2260 hc         1 AGI       0.112700
     96 H43          3.3640    -5.7600     0.2810 hc         1 AGI       0.115700
     97 H44         11.0140    -6.0760     4.4150 hc         1 AGI       0.094700
     98 H45         11.0040    -4.8040     5.6730 hc         1 AGI       0.094700
     99 H46         12.7890    -6.5300     6.0300 ho         1 AGI       0.470000
@<TRIPOS>BOND
     1     1     2 1   
     2     1    53 1   
     3     2     3 1   
     4     2    15 1   
     5     2    54 1   
     6     3     4 1   
     7     3    55 1   
     8     3    56 1   
     9     4     5 1   
    10     4    57 1   
    11     4    58 1   
    12     5     6 1   
    13     5    59 1   
    14     5    60 1   
    15     6     7 1   
    16     6    61 1   
    17     6    62 1   
    18     7     8 1   
    19     8     9 1   
    20     8     9 1   
    21     8    14 1   
    22     9    10 1   
    23     9    63 1   
    24    10    11 1   
    25    10    11 1   
    26    10    64 1   
    27    11    12 1   
    28    11    13 1   
    29    13    14 1   
    30    13    14 1   
    31    13    65 1   
    32    14    66 1   
    33    15    16 1   
    34    15    67 1   
    35    15    68 1   
    36    16    17 1   
    37    16    17 1   
    38    16    18 1   
    39    18    19 1   
    40    19    20 1   
    41    19    32 1   
    42    19    69 1   
    43    20    21 1   
    44    20    70 1   
    45    20    71 1   
    46    21    22 1   
    47    21    72 1   
    48    21    73 1   
    49    22    23 1   
    50    22    74 1   
    51    22    75 1   
    52    23    24 1   
    53    23    76 1   
    54    23    77 1   
    55    24    25 1   
    56    25    26 1   
    57    25    26 1   
    58    25    31 1   
    59    26    27 1   
    60    26    78 1   
    61    27    28 1   
    62    27    28 1   
    63    27    79 1   
    64    28    29 1   
    65    28    30 1   
    66    30    31 1   
    67    30    31 1   
    68    30    80 1   
    69    31    81 1   
    70    32    33 1   
    71    32    82 1   
    72    32    83 1   
    73    33    34 1   
    74    33    34 1   
    75    33    35 1   
    76    35    36 1   
    77    36    37 1   
    78    36    49 1   
    79    36    84 1   
    80    37    38 1   
    81    37    85 1   
    82    37    86 1   
    83    38    39 1   
    84    38    87 1   
    85    38    88 1   
    86    39    40 1   
    87    39    89 1   
    88    39    90 1   
    89    40    41 1   
    90    40    91 1   
    91    40    92 1   
    92    41    42 1   
    93    42    43 1   
    94    42    43 1   
    95    42    48 1   
    96    43    44 1   
    97    43    93 1   
    98    44    45 1   
    99    44    45 1   
   100    44    94 1   
   101    45    46 1   
   102    45    47 1   
   103    47    48 1   
   104    47    48 1   
   105    47    95 1   
   106    48    96 1   
   107    49    50 1   
   108    49    97 1   
   109    49    98 1   
   110    50    51 1   
   111    50    51 1   
   112    50    52 1   
   113    52    99 1   
@<TRIPOS>SUBSTRUCTURE
     1 AGI         1 TEMP              0 ****  ****    0 ROOT
