@<TRIPOS>MOLECULE
AKY
   96   110     1     0     0
SMALL
abcg2


@<TRIPOS>ATOM
      1 O           15.2680     2.4770     2.5040 oh         1 AKY      -0.667000
      2 C           14.7200     1.4460     3.3410 c3         1 AKY       0.184300
      3 C1          15.7460     1.1650     4.3770 c3         1 AKY      -0.081400
      4 C2          15.4820     0.4770     5.6780 c3         1 AKY      -0.082400
      5 C3          16.7900     0.2960     6.5110 c3         1 AKY      -0.039400
      6 C4          18.1640     0.7620     6.0020 c3         1 AKY      -0.077000
      7 C5          19.3140     0.4610     6.7350 c3         1 AKY      -0.084700
      8 C6          20.5810     0.8980     6.2880 c3         1 AKY      -0.091700
      9 C7          20.7240     1.6460     5.1130 c3         1 AKY      -0.076000
     10 C8          21.9940     2.1700     4.5530 c3         1 AKY      -0.059100
     11 C9          19.6140     1.9430     4.3810 c3         1 AKY      -0.092700
     12 C10         18.3990     1.5080     4.8330 c3         1 AKY      -0.087700
     13 C11         14.5810     0.2160     2.5030 c3         1 AKY      -0.171400
     14 C12         13.4360     0.4270     1.5680 c3         1 AKY       0.592000
     15 O1          12.8840     1.5130     1.4110 os         1 AKY      -0.516000
     16 O2          13.1000    -0.6420     0.8200 os         1 AKY      -0.460000
     17 C13         13.6980    -1.9260     1.0930 c3         1 AKY       0.178300
     18 C14         14.2420    -2.3790    -0.2080 c3         1 AKY      -0.097400
     19 C15         15.3140    -3.4110    -0.3320 c3         1 AKY      -0.077400
     20 C16         15.6370    -3.7230    -1.8220 c3         1 AKY      -0.042400
     21 C17         14.9030    -3.0320    -2.9820 c3         1 AKY      -0.083000
     22 C18         15.1420    -3.4460    -4.2940 c3         1 AKY      -0.085700
     23 C19         14.4890    -2.8110    -5.3740 c3         1 AKY      -0.085700
     24 C20         13.5970    -1.7510    -5.1670 c3         1 AKY      -0.072000
     25 C21         12.8670    -1.0000    -6.2180 c3         1 AKY      -0.061100
     26 C22         13.3460    -1.3370    -3.8940 c3         1 AKY      -0.090700
     27 C23         13.9890    -1.9690    -2.8660 c3         1 AKY      -0.086700
     28 C24         12.5850    -2.8240     1.5000 c3         1 AKY      -0.142400
     29 C25         12.1360    -2.4570     2.8850 c3         1 AKY       0.599000
     30 O3          12.4100    -1.4260     3.4680 os         1 AKY      -0.521000
     31 O4          11.3380    -3.3590     3.4770 os         1 AKY      -0.453000
     32 C26         10.9780    -4.5770     2.8060 c3         1 AKY       0.175300
     33 C27          9.4980    -4.4770     2.6840 c3         1 AKY      -0.112400
     34 C28          8.7690    -4.5230     1.3780 c3         1 AKY      -0.075400
     35 C29          7.2220    -4.4780     1.5870 c3         1 AKY      -0.043400
     36 C30          6.5850    -4.3480     2.9800 c3         1 AKY      -0.082000
     37 C31          5.1990    -4.4570     3.1190 c3         1 AKY      -0.087700
     38 C32          4.5950    -4.3260     4.3890 c3         1 AKY      -0.089700
     39 C33          5.3560    -4.0740     5.5380 c3         1 AKY      -0.070000
     40 C34          4.8340    -3.9010     6.9160 c3         1 AKY      -0.062100
     41 C35          6.7100    -3.9690     5.4230 c3         1 AKY      -0.089700
     42 C36          7.2720    -4.1030     4.1840 c3         1 AKY      -0.085700
     43 C37         11.4310    -5.6890     3.7440 c3         1 AKY      -0.134400
     44 C38         12.9470    -5.6940     3.7920 c3         1 AKY       0.585000
     45 O5          13.6710    -4.8820     3.2620 os         1 AKY      -0.499000
     46 O6          13.4650    -6.7210     4.4940 oh         1 AKY      -0.618000
     47 H           14.5520     2.7160     1.8810 ho         1 AKY       0.460000
     48 H1          13.8030     1.8000     3.8100 h1         1 AKY       0.044700
     49 H2          16.4860     0.5270     3.8640 hc         1 AKY       0.060700
     50 H3          16.0810     2.1670     4.6600 hc         1 AKY       0.060700
     51 H4          15.0030    -0.4940     5.5130 hc         1 AKY       0.048700
     52 H5          14.7720     1.0920     6.2420 hc         1 AKY       0.048700
     53 H6          16.8610    -0.7770     6.7470 hc         1 AKY       0.048200
     54 H7          16.6120     0.7890     7.4780 hc         1 AKY       0.048200
     55 H8          19.2470    -0.1140     7.6570 hc         1 AKY       0.111700
     56 H9          21.4630     0.6460     6.8670 hc         1 AKY       0.090700
     57 H10         22.8370     1.9000     5.1800 hc         1 AKY       0.042033
     58 H11         21.9220     3.2620     4.4740 hc         1 AKY       0.042033
     59 H12         22.1320     1.7620     3.5440 hc         1 AKY       0.042033
     60 H13         19.6360     2.5080     3.4510 hc         1 AKY       0.089700
     61 H14         17.7030     1.8460     4.0950 hc         1 AKY       0.089700
     62 H15         14.4270    -0.6160     3.1890 hc         1 AKY       0.102200
     63 H16         15.4860     0.0170     1.9080 hc         1 AKY       0.102200
     64 H17         14.5240    -1.9420     1.7950 h1         1 AKY       0.078700
     65 H18         13.3700    -2.7810    -0.7450 hc         1 AKY       0.065200
     66 H19         14.6960    -1.4670    -0.6140 hc         1 AKY       0.065200
     67 H20         15.0240    -4.3240     0.1980 hc         1 AKY       0.045200
     68 H21         16.2110    -3.0250     0.1650 hc         1 AKY       0.045200
     69 H22         15.5160    -4.8100    -1.9410 hc         1 AKY       0.052200
     70 H23         16.7130    -3.5370    -1.9520 hc         1 AKY       0.052200
     71 H24         15.8330    -4.2620    -4.4980 hc         1 AKY       0.093700
     72 H25         14.6840    -3.1520    -6.3840 hc         1 AKY       0.096700
     73 H26         13.1110    -1.3760    -7.2070 hc         1 AKY       0.044700
     74 H27         13.1370     0.0620    -6.1460 hc         1 AKY       0.044700
     75 H28         11.7890    -1.0930    -6.0370 hc         1 AKY       0.044700
     76 H29         12.6590    -0.5300    -3.6470 hc         1 AKY       0.091700
     77 H30         13.6210    -1.4820    -1.9890 hc         1 AKY       0.091700
     78 H31         13.0050    -3.8260     1.4490 hc         1 AKY       0.101700
     79 H32         11.7280    -2.7620     0.8170 hc         1 AKY       0.101700
     80 H33         11.3680    -4.7230     1.8050 h1         1 AKY       0.079700
     81 H34          9.1060    -5.3130     3.2720 hc         1 AKY       0.064200
     82 H35          9.2600    -3.4580     3.0250 hc         1 AKY       0.064200
     83 H36          9.0590    -5.4270     0.8360 hc         1 AKY       0.045700
     84 H37          9.0800    -3.6650     0.7680 hc         1 AKY       0.045700
     85 H38          6.8270    -5.3900     1.1160 hc         1 AKY       0.055700
     86 H39          6.8450    -3.6490     0.9700 hc         1 AKY       0.055700
     87 H40          4.5700    -4.6460     2.2510 hc         1 AKY       0.091700
     88 H41          3.5190    -4.4210     4.4760 hc         1 AKY       0.092700
     89 H42          3.7530    -3.9940     6.9390 hc         1 AKY       0.045367
     90 H43          5.1300    -2.9110     7.2850 hc         1 AKY       0.045367
     91 H44          5.2890    -4.6590     7.5660 hc         1 AKY       0.045367
     92 H45          7.3710    -3.7830     6.2680 hc         1 AKY       0.093700
     93 H46          8.3220    -4.0010     4.3550 hc         1 AKY       0.093700
     94 H47         11.0630    -6.6420     3.3580 hc         1 AKY       0.094700
     95 H48         11.0440    -5.5250     4.7590 hc         1 AKY       0.094700
     96 H49         12.8190    -7.3100     4.9170 ho         1 AKY       0.466000
@<TRIPOS>BOND
     1     1     2 1   
     2     1    47 1   
     3     2     3 1   
     4     2    13 1   
     5     2    48 1   
     6     3     4 1   
     7     3    49 1   
     8     3    50 1   
     9     4     5 1   
    10     4    51 1   
    11     4    52 1   
    12     5     6 1   
    13     5    53 1   
    14     5    54 1   
    15     6     7 1   
    16     6     7 1   
    17     6    12 1   
    18     7     8 1   
    19     7    55 1   
    20     8     9 1   
    21     8     9 1   
    22     8    56 1   
    23     9    10 1   
    24     9    11 1   
    25    10    57 1   
    26    10    58 1   
    27    10    59 1   
    28    11    12 1   
    29    11    12 1   
    30    11    60 1   
    31    12    61 1   
    32    13    14 1   
    33    13    62 1   
    34    13    63 1   
    35    14    15 1   
    36    14    15 1   
    37    14    16 1   
    38    16    17 1   
    39    17    18 1   
    40    17    28 1   
    41    17    64 1   
    42    18    19 1   
    43    18    65 1   
    44    18    66 1   
    45    19    20 1   
    46    19    67 1   
    47    19    68 1   
    48    20    21 1   
    49    20    69 1   
    50    20    70 1   
    51    21    22 1   
    52    21    22 1   
    53    21    27 1   
    54    22    23 1   
    55    22    71 1   
    56    23    24 1   
    57    23    24 1   
    58    23    72 1   
    59    24    25 1   
    60    24    26 1   
    61    25    73 1   
    62    25    74 1   
    63    25    75 1   
    64    26    27 1   
    65    26    27 1   
    66    26    76 1   
    67    27    77 1   
    68    28    29 1   
    69    28    78 1   
    70    28    79 1   
    71    29    30 1   
    72    29    30 1   
    73    29    31 1   
    74    31    32 1   
    75    32    33 1   
    76    32    43 1   
    77    32    80 1   
    78    33    34 1   
    79    33    81 1   
    80    33    82 1   
    81    34    35 1   
    82    34    83 1   
    83    34    84 1   
    84    35    36 1   
    85    35    85 1   
    86    35    86 1   
    87    36    37 1   
    88    36    37 1   
    89    36    42 1   
    90    37    38 1   
    91    37    87 1   
    92    38    39 1   
    93    38    39 1   
    94    38    88 1   
    95    39    40 1   
    96    39    41 1   
    97    40    89 1   
    98    40    90 1   
    99    40    91 1   
   100    41    42 1   
   101    41    42 1   
   102    41    92 1   
   103    42    93 1   
   104    43    44 1   
   105    43    94 1   
   106    43    95 1   
   107    44    45 1   
   108    44    45 1   
   109    44    46 1   
   110    46    96 1   
@<TRIPOS>SUBSTRUCTURE
     1 AKY         1 TEMP              0 ****  ****    0 ROOT
