@<TRIPOS>MOLECULE
AHC
   93   113     1     0     0
SMALL
abcg2


@<TRIPOS>ATOM
      1 O           15.3670     2.4930     2.5430 oh         1 AHC      -0.668000
      2 C           14.9810     1.4050     3.3850 c3         1 AHC       0.185300
      3 C1          16.1580     1.1010     4.3400 c3         1 AHC      -0.082400
      4 C2          16.6670    -0.3420     4.2250 c3         1 AHC      -0.087400
      5 C3          17.8770    -0.6420     5.0760 c3         1 AHC       0.151600
      6 O1          18.2760    -1.9890     4.7830 os         1 AHC      -0.400000
      7 C4          19.3020    -2.4730     5.5440 c3         1 AHC       0.205000
      8 C5          19.4380    -2.2110     6.9050 c3         1 AHC      -0.175700
      9 C6          20.4590    -2.8160     7.6410 c3         1 AHC      -0.012700
     10 C7          21.3420    -3.7060     7.0260 c3         1 AHC      -0.056000
     11 C8          22.3210    -4.3980     7.8160 c3         1 AHC       0.383600
     12 N           23.0840    -4.9680     8.4740 n3         1 AHC      -0.519600
     13 C9          21.2250    -3.9520     5.6550 c3         1 AHC      -0.019700
     14 C10         20.2010    -3.3420     4.9180 c3         1 AHC      -0.126700
     15 C11         14.6280     0.2160     2.5060 c3         1 AHC      -0.167400
     16 C12         13.4570     0.4530     1.6000 c3         1 AHC       0.596000
     17 O2          12.9020     1.5460     1.5210 os         1 AHC      -0.514000
     18 O3          13.0980    -0.5780     0.7830 os         1 AHC      -0.459000
     19 C13         13.6720    -1.9000     0.9100 c3         1 AHC       0.183300
     20 C14         14.1360    -2.3450    -0.4890 c3         1 AHC      -0.094400
     21 C15         15.2770    -3.3690    -0.4030 c3         1 AHC      -0.094400
     22 C16         15.7380    -3.8220    -1.7910 c3         1 AHC       0.153600
     23 O4          16.7660    -4.8120    -1.6510 os         1 AHC      -0.397000
     24 C17         17.3510    -5.2410    -2.8170 c3         1 AHC       0.203000
     25 C18         17.6600    -4.4070    -3.8910 c3         1 AHC      -0.174700
     26 C19         18.3570    -4.9040    -5.0010 c3         1 AHC      -0.012700
     27 C20         18.7710    -6.2380    -5.0390 c3         1 AHC      -0.054000
     28 C21         19.5720    -6.7080    -6.1360 c3         1 AHC       0.383600
     29 N1          20.2400    -7.0640    -7.0120 n3         1 AHC      -0.518600
     30 C22         18.4390    -7.0860    -3.9800 c3         1 AHC      -0.019700
     31 C23         17.7400    -6.5850    -2.8710 c3         1 AHC      -0.123700
     32 C24         12.6050    -2.8440     1.4560 c3         1 AHC      -0.150400
     33 C25         12.1450    -2.4730     2.8630 c3         1 AHC       0.600000
     34 O5          12.4940    -1.4570     3.4520 os         1 AHC      -0.512000
     35 O6          11.2550    -3.2780     3.4890 os         1 AHC      -0.457000
     36 C26         10.8180    -4.5270     2.9390 c3         1 AHC       0.181300
     37 C27          9.2810    -4.4790     2.9480 c3         1 AHC      -0.096400
     38 C28          8.7240    -5.0510     1.6430 c3         1 AHC      -0.088400
     39 C29          7.1960    -5.0510     1.6310 c3         1 AHC       0.152600
     40 O7           6.7370    -5.6590     0.4160 os         1 AHC      -0.401000
     41 C30          5.3790    -5.6440     0.2160 c3         1 AHC       0.199000
     42 C31          4.5500    -4.5690     0.5360 c3         1 AHC      -0.172700
     43 C32          3.1910    -4.5930     0.1970 c3         1 AHC      -0.013700
     44 C33          2.6470    -5.6860    -0.4820 c3         1 AHC      -0.050000
     45 C34          1.2770    -5.6530    -0.9130 c3         1 AHC       0.380600
     46 N2           0.1790    -5.6000    -1.2770 n3         1 AHC      -0.512600
     47 C35          3.4650    -6.7790    -0.7790 c3         1 AHC      -0.019700
     48 C36          4.8260    -6.7520    -0.4380 c3         1 AHC      -0.122700
     49 C37         11.3800    -5.6720     3.7970 c3         1 AHC      -0.151400
     50 C38         12.8990    -5.6770     3.8040 c3         1 AHC       0.590000
     51 O8          13.6070    -4.8500     3.2530 os         1 AHC      -0.514000
     52 O9          13.4670    -6.6950     4.4760 oh         1 AHC      -0.610000
     53 H           14.5900     2.6780     1.9730 ho         1 AHC       0.463000
     54 H1          14.1120     1.7300     3.9720 h1         1 AHC       0.046700
     55 H2          16.9840     1.7990     4.1540 hc         1 AHC       0.064700
     56 H3          15.8320     1.2830     5.3730 hc         1 AHC       0.064700
     57 H4          16.9420    -0.5630     3.1880 hc         1 AHC       0.063200
     58 H5          15.8720    -1.0440     4.5080 hc         1 AHC       0.063200
     59 H6          17.5840    -0.5050     6.1190 h1         1 AHC       0.044700
     60 H7          18.6890     0.0370     4.8030 h1         1 AHC       0.044700
     61 H8          18.7370    -1.5740     7.4320 hc         1 AHC       0.105700
     62 H9          20.5380    -2.6050     8.7050 hc         1 AHC       0.105700
     63 H10         21.9140    -4.6320     5.1560 hc         1 AHC       0.107700
     64 H11         20.1060    -3.5560     3.8560 hc         1 AHC       0.116700
     65 H12         14.4090    -0.6120     3.1730 hc         1 AHC       0.100700
     66 H13         15.4760    -0.0310     1.8600 hc         1 AHC       0.100700
     67 H14         14.5420    -1.9200     1.5690 h1         1 AHC       0.077700
     68 H15         13.2930    -2.7760    -1.0450 hc         1 AHC       0.062200
     69 H16         14.4660    -1.4730    -1.0670 hc         1 AHC       0.062200
     70 H17         14.9720    -4.2400     0.1870 hc         1 AHC       0.068200
     71 H18         16.1250    -2.9240     0.1340 hc         1 AHC       0.068200
     72 H19         16.0890    -2.9370    -2.3310 h1         1 AHC       0.044700
     73 H20         14.8930    -4.2690    -2.3250 h1         1 AHC       0.044700
     74 H21         17.4140    -3.3510    -3.8790 hc         1 AHC       0.104700
     75 H22         18.6000    -4.2300    -5.8200 hc         1 AHC       0.106700
     76 H23         18.7400    -8.1320    -3.9990 hc         1 AHC       0.108700
     77 H24         17.5100    -7.2530    -2.0440 hc         1 AHC       0.118700
     78 H25         13.0460    -3.8390     1.4340 hc         1 AHC       0.111200
     79 H26         11.7320    -2.8440     0.7960 hc         1 AHC       0.111200
     80 H27         11.1600    -4.6490     1.9130 h1         1 AHC       0.078700
     81 H28          8.8870    -5.0440     3.8010 hc         1 AHC       0.065700
     82 H29          8.9220    -3.4470     3.0730 hc         1 AHC       0.065700
     83 H30          9.1040    -6.0670     1.4910 hc         1 AHC       0.060700
     84 H31          9.0950    -4.4570     0.7970 hc         1 AHC       0.060700
     85 H32          6.8600    -4.0140     1.7280 h1         1 AHC       0.046200
     86 H33          6.8280    -5.6390     2.4790 h1         1 AHC       0.046200
     87 H34          4.9380    -3.6730     1.0070 hc         1 AHC       0.104700
     88 H35          2.5670    -3.7350     0.4440 hc         1 AHC       0.107700
     89 H36          3.0560    -7.6460    -1.2950 hc         1 AHC       0.110700
     90 H37          5.4530    -7.6020    -0.6960 hc         1 AHC       0.117700
     91 H38         11.0230    -6.6180     3.3770 hc         1 AHC       0.094700
     92 H39         11.0320    -5.5740     4.8320 hc         1 AHC       0.094700
     93 H40         12.8750    -7.3190     4.9290 ho         1 AHC       0.469000
@<TRIPOS>BOND
     1     1     2 1   
     2     1    53 1   
     3     2     3 1   
     4     2    15 1   
     5     2    54 1   
     6     3     4 1   
     7     3    55 1   
     8     3    56 1   
     9     4     5 1   
    10     4    57 1   
    11     4    58 1   
    12     5     6 1   
    13     5    59 1   
    14     5    60 1   
    15     6     7 1   
    16     7     8 1   
    17     7     8 1   
    18     7    14 1   
    19     8     9 1   
    20     8    61 1   
    21     9    10 1   
    22     9    10 1   
    23     9    62 1   
    24    10    11 1   
    25    10    13 1   
    26    11    12 1   
    27    11    12 1   
    28    11    12 1   
    29    13    14 1   
    30    13    14 1   
    31    13    63 1   
    32    14    64 1   
    33    15    16 1   
    34    15    65 1   
    35    15    66 1   
    36    16    17 1   
    37    16    17 1   
    38    16    18 1   
    39    18    19 1   
    40    19    20 1   
    41    19    32 1   
    42    19    67 1   
    43    20    21 1   
    44    20    68 1   
    45    20    69 1   
    46    21    22 1   
    47    21    70 1   
    48    21    71 1   
    49    22    23 1   
    50    22    72 1   
    51    22    73 1   
    52    23    24 1   
    53    24    25 1   
    54    24    25 1   
    55    24    31 1   
    56    25    26 1   
    57    25    74 1   
    58    26    27 1   
    59    26    27 1   
    60    26    75 1   
    61    27    28 1   
    62    27    30 1   
    63    28    29 1   
    64    28    29 1   
    65    28    29 1   
    66    30    31 1   
    67    30    31 1   
    68    30    76 1   
    69    31    77 1   
    70    32    33 1   
    71    32    78 1   
    72    32    79 1   
    73    33    34 1   
    74    33    34 1   
    75    33    35 1   
    76    35    36 1   
    77    36    37 1   
    78    36    49 1   
    79    36    80 1   
    80    37    38 1   
    81    37    81 1   
    82    37    82 1   
    83    38    39 1   
    84    38    83 1   
    85    38    84 1   
    86    39    40 1   
    87    39    85 1   
    88    39    86 1   
    89    40    41 1   
    90    41    42 1   
    91    41    42 1   
    92    41    48 1   
    93    42    43 1   
    94    42    87 1   
    95    43    44 1   
    96    43    44 1   
    97    43    88 1   
    98    44    45 1   
    99    44    47 1   
   100    45    46 1   
   101    45    46 1   
   102    45    46 1   
   103    47    48 1   
   104    47    48 1   
   105    47    89 1   
   106    48    90 1   
   107    49    50 1   
   108    49    91 1   
   109    49    92 1   
   110    50    51 1   
   111    50    51 1   
   112    50    52 1   
   113    52    93 1   
@<TRIPOS>SUBSTRUCTURE
     1 AHC         1 TEMP              0 ****  ****    0 ROOT
