@<TRIPOS>MOLECULE
AKM
   84    86     1     0     0
SMALL
abcg2


@<TRIPOS>ATOM
      1 O           13.4490     2.0130    -3.4920 oh         1 AKM      -0.669000
      2 C           14.0530     2.3690    -2.2630 c3         1 AKM       0.179300
      3 C1          15.5780     2.1860    -2.3430 c3         1 AKM      -0.074400
      4 C2          16.1380     3.0840    -3.4490 c3         1 AKM      -0.060700
      5 C3          15.8370     4.5860    -3.1660 c3         1 AKM      -0.077400
      6 C4          14.3850     5.0600    -3.1250 c3         1 AKM      -0.093600
      7 C5          17.6570     2.8400    -3.6060 c3         1 AKM      -0.077400
      8 C6          18.2200     3.6470    -4.7660 c3         1 AKM      -0.093600
      9 C7          13.3970     1.6610    -1.1530 c3         1 AKM      -0.168400
     10 C8          11.9220     1.7690    -0.8920 c3         1 AKM       0.597000
     11 O1          11.2290     2.4870    -1.6090 os         1 AKM      -0.520000
     12 O2          11.3420     0.9490     0.0470 os         1 AKM      -0.456000
     13 C9          11.9960     0.1230     1.0560 c3         1 AKM       0.176300
     14 C10         12.0150    -1.3830     0.6940 c3         1 AKM      -0.091400
     15 C11         12.7200    -1.6810    -0.6430 c3         1 AKM      -0.060700
     16 C12         14.2870    -1.5070    -0.5700 c3         1 AKM      -0.078900
     17 C13         14.7930    -0.2880     0.1210 c3         1 AKM      -0.095100
     18 C14         12.4810    -3.1080    -1.1380 c3         1 AKM      -0.078900
     19 C15         13.0130    -3.2750    -2.5610 c3         1 AKM      -0.095100
     20 C16         11.4360     0.3310     2.4260 c3         1 AKM      -0.147400
     21 C17         11.6480     1.7920     2.7710 c3         1 AKM       0.599000
     22 O3          12.2970     2.5930     2.1090 os         1 AKM      -0.516000
     23 O4          11.0290     2.1810     3.8940 os         1 AKM      -0.456000
     24 C18         10.8020     1.1890     4.8780 c3         1 AKM       0.177300
     25 C19          9.2890     1.1950     5.1810 c3         1 AKM      -0.095400
     26 C20          8.7850     0.4610     6.4640 c3         1 AKM      -0.065700
     27 C21          9.1110     1.1180     7.8570 c3         1 AKM      -0.079400
     28 C22         10.5080     1.1340     8.4210 c3         1 AKM      -0.095100
     29 C23          7.2290     0.4050     6.3730 c3         1 AKM      -0.079400
     30 C24          6.6130    -0.3480     7.5470 c3         1 AKM      -0.095100
     31 C25         11.6670     1.5730     6.0180 c3         1 AKM      -0.148400
     32 C26         13.1410     1.5060     6.1680 c3         1 AKM       0.587000
     33 O5          13.9160     1.1650     5.2600 os         1 AKM      -0.511000
     34 O6          13.5780     1.7300     7.4350 oh         1 AKM      -0.616000
     35 H           12.4870     2.1310    -3.3590 ho         1 AKM       0.460000
     36 H1          13.7940     3.3450    -1.9590 h1         1 AKM       0.051700
     37 H2          16.0720     2.4260    -1.3890 hc         1 AKM       0.052700
     38 H3          15.8400     1.1380    -2.5630 hc         1 AKM       0.052700
     39 H4          15.6700     2.7830    -4.3960 hc         1 AKM       0.062700
     40 H5          16.2750     5.1830    -3.9620 hc         1 AKM       0.039700
     41 H6          16.3290     4.8590    -2.2250 hc         1 AKM       0.039700
     42 H7          13.7850     4.5580    -3.8940 hc         1 AKM       0.033033
     43 H8          14.3050     6.1350    -3.2450 hc         1 AKM       0.033033
     44 H9          13.9310     4.9660    -2.1360 hc         1 AKM       0.033033
     45 H10         17.8570     1.7750    -3.7920 hc         1 AKM       0.039700
     46 H11         18.1850     3.0990    -2.6800 hc         1 AKM       0.039700
     47 H12         17.7030     3.3850    -5.6950 hc         1 AKM       0.033033
     48 H13         19.2890     3.4670    -4.8890 hc         1 AKM       0.033033
     49 H14         18.0990     4.7200    -4.6000 hc         1 AKM       0.033033
     50 H15         13.9390     2.0000    -0.2530 hc         1 AKM       0.099200
     51 H16         13.5260     0.6770    -1.5880 hc         1 AKM       0.099200
     52 H17         12.9700     0.5140     1.2950 h1         1 AKM       0.079700
     53 H18         12.5250    -1.9590     1.4780 hc         1 AKM       0.062200
     54 H19         10.9780    -1.7470     0.6650 hc         1 AKM       0.062200
     55 H20         12.2540    -1.0170    -1.3910 hc         1 AKM       0.047700
     56 H21         14.6330    -1.4090    -1.6060 hc         1 AKM       0.043700
     57 H22         14.7700    -2.3470    -0.0850 hc         1 AKM       0.043700
     58 H23         13.8900     0.2050    -0.0010 hc         1 AKM       0.034367
     59 H24         15.5270     0.2900    -0.4350 hc         1 AKM       0.034367
     60 H25         14.8690    -0.1390     1.1950 hc         1 AKM       0.034367
     61 H26         11.4170    -3.3650    -1.1150 hc         1 AKM       0.043700
     62 H27         13.0030    -3.7970    -0.4650 hc         1 AKM       0.043700
     63 H28         12.4780    -2.6160    -3.2540 hc         1 AKM       0.034367
     64 H29         12.9060    -4.3080    -2.8910 hc         1 AKM       0.034367
     65 H30         14.0770    -3.0330    -2.6400 hc         1 AKM       0.034367
     66 H31         12.0550    -0.2820     3.1030 hc         1 AKM       0.107700
     67 H32         10.3850     0.0470     2.4990 hc         1 AKM       0.107700
     68 H33         11.0700     0.1610     4.6300 h1         1 AKM       0.079700
     69 H34          8.9080     2.2240     5.1560 hc         1 AKM       0.064200
     70 H35          8.8190     0.7230     4.2980 hc         1 AKM       0.064200
     71 H36          9.1620    -0.5710     6.4250 hc         1 AKM       0.045700
     72 H37          8.5860     0.5990     8.6500 hc         1 AKM       0.044950
     73 H38          8.7500     2.1500     7.8090 hc         1 AKM       0.044950
     74 H39         11.0170     0.1730     8.2670 hc         1 AKM       0.034867
     75 H40         10.6950     1.4290     9.4500 hc         1 AKM       0.034867
     76 H41         10.9420     2.0040     7.9640 hc         1 AKM       0.034867
     77 H42          6.9080    -0.0760     5.4400 hc         1 AKM       0.044950
     78 H43          6.8310     1.4280     6.3500 hc         1 AKM       0.044950
     79 H44          7.0110    -1.3660     7.5900 hc         1 AKM       0.034867
     80 H45          5.5260    -0.3770     7.4730 hc         1 AKM       0.034867
     81 H46          6.8120     0.1350     8.5050 hc         1 AKM       0.034867
     82 H47         11.4460     0.6930     6.5960 hc         1 AKM       0.093700
     83 H48         11.3500     2.5790     6.3100 hc         1 AKM       0.093700
     84 H49         12.9310     1.9520     8.1410 ho         1 AKM       0.467000
@<TRIPOS>BOND
     1     1     2 1   
     2     1    35 1   
     3     2     3 1   
     4     2     9 1   
     5     2    36 1   
     6     3     4 1   
     7     3    37 1   
     8     3    38 1   
     9     4     5 1   
    10     4     7 1   
    11     4    39 1   
    12     5     6 1   
    13     5    40 1   
    14     5    41 1   
    15     6    42 1   
    16     6    43 1   
    17     6    44 1   
    18     7     8 1   
    19     7    45 1   
    20     7    46 1   
    21     8    47 1   
    22     8    48 1   
    23     8    49 1   
    24     9    10 1   
    25     9    50 1   
    26     9    51 1   
    27    10    11 1   
    28    10    11 1   
    29    10    12 1   
    30    12    13 1   
    31    13    14 1   
    32    13    20 1   
    33    13    52 1   
    34    14    15 1   
    35    14    53 1   
    36    14    54 1   
    37    15    16 1   
    38    15    18 1   
    39    15    55 1   
    40    16    17 1   
    41    16    56 1   
    42    16    57 1   
    43    17    58 1   
    44    17    59 1   
    45    17    60 1   
    46    18    19 1   
    47    18    61 1   
    48    18    62 1   
    49    19    63 1   
    50    19    64 1   
    51    19    65 1   
    52    20    21 1   
    53    20    66 1   
    54    20    67 1   
    55    21    22 1   
    56    21    22 1   
    57    21    23 1   
    58    23    24 1   
    59    24    25 1   
    60    24    31 1   
    61    24    68 1   
    62    25    26 1   
    63    25    69 1   
    64    25    70 1   
    65    26    27 1   
    66    26    29 1   
    67    26    71 1   
    68    27    28 1   
    69    27    72 1   
    70    27    73 1   
    71    28    74 1   
    72    28    75 1   
    73    28    76 1   
    74    29    30 1   
    75    29    77 1   
    76    29    78 1   
    77    30    79 1   
    78    30    80 1   
    79    30    81 1   
    80    31    32 1   
    81    31    82 1   
    82    31    83 1   
    83    32    33 1   
    84    32    33 1   
    85    32    34 1   
    86    34    84 1   
@<TRIPOS>SUBSTRUCTURE
     1 AKM         1 TEMP              0 ****  ****    0 ROOT
