@<TRIPOS>MOLECULE
ADK
   60    74     1     0     0
SMALL
abcg2


@<TRIPOS>ATOM
      1 O            1.1100    -0.0850     0.0770 oh         1 ADK      -0.666000
      2 C            2.5400     0.0200     0.0230 c3         1 ADK       0.209300
      3 C1           2.9020     1.2010    -0.8560 c3         1 ADK      -0.135000
      4 C2           3.8910     1.0990    -1.8470 c3         1 ADK      -0.072700
      5 C3           4.3430     2.2410    -2.5100 c3         1 ADK      -0.092200
      6 C4           3.7450     3.4740    -2.2600 c3         1 ADK      -0.082700
      7 C5           2.7370     3.5800    -1.3050 c3         1 ADK      -0.092200
      8 C6           2.3270     2.4530    -0.6000 c3         1 ADK      -0.080700
      9 C7           3.1000     0.1700     1.4530 c3         1 ADK      -0.079400
     10 C8           4.6110     0.0700     1.4370 c3         1 ADK       0.601000
     11 O1           5.2570    -0.2260     0.4360 os         1 ADK      -0.537000
     12 O2           5.1790     0.3030     2.6660 os         1 ADK      -0.477000
     13 C9           6.6450     0.3380     2.6440 c3         1 ADK       0.212300
     14 C10          7.0850     1.5360     1.8160 c3         1 ADK      -0.113000
     15 C11          8.0690     1.4200     0.8220 c3         1 ADK      -0.067700
     16 C12          8.5170     2.5540     0.1480 c3         1 ADK      -0.094700
     17 C13          7.9160     3.7880     0.3910 c3         1 ADK      -0.080700
     18 C14          6.9130     3.9040     1.3500 c3         1 ADK      -0.094700
     19 C15          6.5110     2.7870     2.0700 c3         1 ADK      -0.068700
     20 C16          7.2210     0.4650     4.0840 c3         1 ADK      -0.086400
     21 C17          8.7430     0.3640     4.0730 c3         1 ADK       0.600000
     22 O3           9.3940     0.0580     3.0780 os         1 ADK      -0.527000
     23 O4           9.3180     0.6020     5.3010 os         1 ADK      -0.479000
     24 C18         10.7880     0.6380     5.2780 c3         1 ADK       0.219300
     25 C19         11.2300     1.8340     4.4510 c3         1 ADK      -0.115000
     26 C20         12.2180     1.7180     3.4610 c3         1 ADK      -0.066700
     27 C21         12.6700     2.8530     2.7910 c3         1 ADK      -0.094200
     28 C22         12.0710     4.0870     3.0350 c3         1 ADK      -0.080700
     29 C23         11.0680     4.2040     3.9940 c3         1 ADK      -0.094200
     30 C24         10.6620     3.0870     4.7110 c3         1 ADK      -0.070700
     31 C25         11.3600     0.7780     6.7150 c3         1 ADK      -0.133400
     32 C26         12.8800     0.7400     6.7260 c3         1 ADK       0.585000
     33 O5          13.5920     0.5140     5.7490 os         1 ADK      -0.487000
     34 O6          13.4430     0.9330     7.9380 oh         1 ADK      -0.623000
     35 H            0.7990    -0.0160    -0.8450 ho         1 ADK       0.452000
     36 H1           2.8900    -0.9180    -0.4250 h1         1 ADK       0.067700
     37 H2           4.3670     0.1430    -2.0640 hc         1 ADK       0.114700
     38 H3           5.1820     2.1730    -3.1980 hc         1 ADK       0.095200
     39 H4           4.0720     4.3560    -2.8040 hc         1 ADK       0.093700
     40 H5           2.2880     4.5430    -1.0850 hc         1 ADK       0.095200
     41 H6           1.5710     2.5500     0.1760 hc         1 ADK       0.101700
     42 H7           2.7030    -0.6320     2.0840 hc         1 ADK       0.098200
     43 H8           2.7770     1.1220     1.8950 hc         1 ADK       0.098200
     44 H9           6.9930    -0.6090     2.2090 h1         1 ADK       0.111700
     45 H10          8.5120     0.4530     0.5850 hc         1 ADK       0.114700
     46 H11          9.3400     2.4770    -0.5580 hc         1 ADK       0.094700
     47 H12          8.2280     4.6620    -0.1720 hc         1 ADK       0.092700
     48 H13          6.4460     4.8620     1.5490 hc         1 ADK       0.094700
     49 H14          5.7380     2.8830     2.8270 hc         1 ADK       0.100700
     50 H15          6.8270    -0.3410     4.7100 hc         1 ADK       0.095200
     51 H16          6.9090     1.4150     4.5370 hc         1 ADK       0.095200
     52 H17         11.1430    -0.3110     4.8520 h1         1 ADK       0.113700
     53 H18         12.6640     0.7520     3.2280 hc         1 ADK       0.115700
     54 H19         13.4930     2.7750     2.0850 hc         1 ADK       0.095700
     55 H20         12.3840     4.9610     2.4730 hc         1 ADK       0.093700
     56 H21         10.6030     5.1630     4.1940 hc         1 ADK       0.095700
     57 H22          9.8900     3.1840     5.4690 hc         1 ADK       0.099700
     58 H23         10.9900    -0.0400     7.3430 hc         1 ADK       0.086200
     59 H24         11.0230     1.7160     7.1750 hc         1 ADK       0.086200
     60 H25         12.8370     1.0620     8.6890 ho         1 ADK       0.463000
@<TRIPOS>BOND
     1     1     2 1   
     2     1    35 1   
     3     2     3 1   
     4     2     9 1   
     5     2    36 1   
     6     3     4 1   
     7     3     4 1   
     8     3     8 1   
     9     4     5 1   
    10     4    37 1   
    11     5     6 1   
    12     5     6 1   
    13     5    38 1   
    14     6     7 1   
    15     6    39 1   
    16     7     8 1   
    17     7     8 1   
    18     7    40 1   
    19     8    41 1   
    20     9    10 1   
    21     9    42 1   
    22     9    43 1   
    23    10    11 1   
    24    10    11 1   
    25    10    12 1   
    26    12    13 1   
    27    13    14 1   
    28    13    20 1   
    29    13    44 1   
    30    14    15 1   
    31    14    15 1   
    32    14    19 1   
    33    15    16 1   
    34    15    45 1   
    35    16    17 1   
    36    16    17 1   
    37    16    46 1   
    38    17    18 1   
    39    17    47 1   
    40    18    19 1   
    41    18    19 1   
    42    18    48 1   
    43    19    49 1   
    44    20    21 1   
    45    20    50 1   
    46    20    51 1   
    47    21    22 1   
    48    21    22 1   
    49    21    23 1   
    50    23    24 1   
    51    24    25 1   
    52    24    31 1   
    53    24    52 1   
    54    25    26 1   
    55    25    26 1   
    56    25    30 1   
    57    26    27 1   
    58    26    53 1   
    59    27    28 1   
    60    27    28 1   
    61    27    54 1   
    62    28    29 1   
    63    28    55 1   
    64    29    30 1   
    65    29    30 1   
    66    29    56 1   
    67    30    57 1   
    68    31    32 1   
    69    31    58 1   
    70    31    59 1   
    71    32    33 1   
    72    32    33 1   
    73    32    34 1   
    74    34    60 1   
@<TRIPOS>SUBSTRUCTURE
     1 ADK         1 TEMP              0 ****  ****    0 ROOT
