@<TRIPOS>MOLECULE
AJC
   33    35     1     0     0
SMALL
abcg2


@<TRIPOS>ATOM
      1 O            0.9960     0.0540     0.0420 oh         1 AJC      -0.680500
      2 C            2.4150     0.0740     0.0030 c3         1 AJC       0.406300
      3 O1           2.8220     1.2870     0.6130 oh         1 AJC      -0.680500
      4 C1           2.9840    -1.1330     0.7570 c3         1 AJC      -0.152400
      5 C2           4.4960    -1.1160     0.6910 c3         1 AJC       0.615000
      6 O2           5.1110    -0.2590     0.0660 os         1 AJC      -0.541000
      7 O3           5.0720    -2.1420     1.4000 os         1 AJC      -0.513000
      8 C3           6.5240    -2.1100     1.4330 c3         1 AJC       0.391300
      9 O4           6.9400    -0.9020     2.0540 oh         1 AJC      -0.654000
     10 C4           7.1110    -3.3270     2.1920 c3         1 AJC      -0.120400
     11 C5           8.6360    -3.3340     2.1190 c3         1 AJC       0.612000
     12 O5           9.2820    -2.5380     1.4490 os         1 AJC      -0.507000
     13 O6           9.2010    -4.3440     2.8690 os         1 AJC      -0.519000
     14 C6          10.6550    -4.3260     2.8920 c3         1 AJC       0.399300
     15 O7          11.0830    -3.1220     3.5140 oh         1 AJC      -0.654000
     16 C7          11.2340    -5.5410     3.6500 c3         1 AJC      -0.169400
     17 C8          12.7520    -5.5440     3.6020 c3         1 AJC       0.587000
     18 O8          13.4410    -4.7270     3.0020 os         1 AJC      -0.478000
     19 O9          13.3360    -6.5540     4.2870 oh         1 AJC      -0.620000
     20 H            0.6810    -0.6900    -0.4930 ho         1 AJC       0.476500
     21 H1           2.7310     0.0870    -1.0490 h2         1 AJC       0.082700
     22 H2           3.7880     1.3510     0.4880 ho         1 AJC       0.476500
     23 H3           2.6070    -2.0560     0.3050 hc         1 AJC       0.099200
     24 H4           2.6580    -1.0910     1.8020 hc         1 AJC       0.099200
     25 H5           6.8870    -2.1310     0.3970 h2         1 AJC       0.143700
     26 H6           6.7160    -0.9430     2.9940 ho         1 AJC       0.455000
     27 H7           6.7360    -4.2560     1.7470 hc         1 AJC       0.100200
     28 H8           6.7970    -3.2930     3.2410 hc         1 AJC       0.100200
     29 H9          11.0240    -4.3540     1.8570 h2         1 AJC       0.143700
     30 H10         10.8750    -3.1660     4.4570 ho         1 AJC       0.453000
     31 H11         10.8710    -6.4730     3.2020 hc         1 AJC       0.092700
     32 H12         10.9170    -5.5150     4.6980 hc         1 AJC       0.092700
     33 H13         12.7540    -7.1960     4.7320 ho         1 AJC       0.463000
@<TRIPOS>BOND
     1     1     2 1   
     2     1    20 1   
     3     2     3 1   
     4     2     4 1   
     5     2    21 1   
     6     3    22 1   
     7     4     5 1   
     8     4    23 1   
     9     4    24 1   
    10     5     6 1   
    11     5     6 1   
    12     5     7 1   
    13     7     8 1   
    14     8     9 1   
    15     8    10 1   
    16     8    25 1   
    17     9    26 1   
    18    10    11 1   
    19    10    27 1   
    20    10    28 1   
    21    11    12 1   
    22    11    12 1   
    23    11    13 1   
    24    13    14 1   
    25    14    15 1   
    26    14    16 1   
    27    14    29 1   
    28    15    30 1   
    29    16    17 1   
    30    16    31 1   
    31    16    32 1   
    32    17    18 1   
    33    17    18 1   
    34    17    19 1   
    35    19    33 1   
@<TRIPOS>SUBSTRUCTURE
     1 AJC         1 TEMP              0 ****  ****    0 ROOT
