@<TRIPOS>MOLECULE
AIY
   66    83     1     0     0
SMALL
abcg2


@<TRIPOS>ATOM
      1 O            0.8740     0.2610     0.2650 oh         1 AIY      -0.652000
      2 C            2.2800     0.0210     0.1120 c3         1 AIY       0.125300
      3 C1           2.3790    -1.1880    -0.8690 c3         1 AIY       0.432000
      4 O1           2.5900    -1.0260    -2.0720 os         1 AIY      -0.462000
      5 C2           2.1490    -2.6280    -0.3880 c3         1 AIY      -0.159000
      6 C3           3.0670    -3.7100    -0.4330 c3         1 AIY      -0.045700
      7 C4           2.7450    -5.0540    -0.3850 c3         1 AIY      -0.097200
      8 C5           1.4550    -5.3580    -0.0680 c3         1 AIY      -0.065700
      9 C6           0.5310    -4.3210     0.1070 c3         1 AIY      -0.097200
     10 C7           0.8590    -2.9760    -0.0960 c3         1 AIY      -0.058700
     11 C8           2.8740     1.3800    -0.3740 c3         1 AIY      -0.075400
     12 C9           4.3480     1.5740    -0.0220 c3         1 AIY       0.607000
     13 O2           4.9300     0.9190     0.8190 os         1 AIY      -0.546000
     14 O3           4.9670     2.4900    -0.8480 os         1 AIY      -0.453000
     15 C10          6.4360     2.4120    -0.9330 c3         1 AIY       0.127300
     16 C11          6.7390     1.3000    -1.9850 c3         1 AIY       0.444000
     17 O4           6.9320     1.5790    -3.1710 os         1 AIY      -0.451000
     18 C12          6.6580    -0.1790    -1.6710 c3         1 AIY      -0.159000
     19 C13          7.6200    -1.2200    -1.5560 c3         1 AIY      -0.037700
     20 C14          7.3600    -2.5790    -1.6390 c3         1 AIY      -0.102200
     21 C15          6.1100    -2.9080    -1.2980 c3         1 AIY      -0.061700
     22 C16          5.2290    -1.8510    -1.1500 c3         1 AIY      -0.102200
     23 C17          5.4000    -0.6020    -1.6620 c3         1 AIY      -0.047700
     24 C18          7.0150     3.8070    -1.4190 c3         1 AIY      -0.086400
     25 C19          8.5220     3.9880    -1.1270 c3         1 AIY       0.595000
     26 O5           9.0930     3.3780    -0.2390 os         1 AIY      -0.531000
     27 O6           9.1780     4.8170    -2.0300 os         1 AIY      -0.459000
     28 C20         10.6590     4.8000    -2.0630 c3         1 AIY       0.131300
     29 C21         11.3210     3.7330    -3.0190 c3         1 AIY       0.457000
     30 O7          11.9130     4.0070    -4.0620 os         1 AIY      -0.470000
     31 C22         11.1610     2.3140    -2.7540 c3         1 AIY      -0.158000
     32 C23         12.1490     1.3240    -2.7750 c3         1 AIY      -0.031700
     33 C24         11.8020    -0.0320    -2.7050 c3         1 AIY      -0.104200
     34 C25         10.5290    -0.3570    -2.3600 c3         1 AIY      -0.056700
     35 C26          9.6520     0.6910    -2.2200 c3         1 AIY      -0.104200
     36 C27          9.8730     1.9390    -2.6790 c3         1 AIY      -0.043700
     37 C28         11.2060     6.1650    -2.5790 c3         1 AIY      -0.142400
     38 C29         12.7370     6.1710    -2.5120 c3         1 AIY       0.582000
     39 O8          13.4040     5.3080    -1.9880 os         1 AIY      -0.484000
     40 O9          13.3160     7.2760    -3.0470 oh         1 AIY      -0.621000
     41 H            0.5060    -0.4930     0.7490 ho         1 AIY       0.457000
     42 H1           2.6930    -0.2510     1.0880 h1         1 AIY       0.087700
     43 H2           4.1260    -3.6310    -0.4030 hc         1 AIY       0.106700
     44 H3           3.5170    -5.8060    -0.5560 hc         1 AIY       0.100700
     45 H4           1.1790    -6.3960     0.0570 hc         1 AIY       0.098700
     46 H5          -0.4910    -4.5610     0.3580 hc         1 AIY       0.100700
     47 H6           0.0830    -2.2280    -0.0730 hc         1 AIY       0.112700
     48 H7           2.3450     2.2060     0.1180 hc         1 AIY       0.111700
     49 H8           2.7170     1.4980    -1.4530 hc         1 AIY       0.111700
     50 H9           6.8600     2.1650     0.0450 h1         1 AIY       0.118700
     51 H10          8.6240    -1.0810    -1.2260 hc         1 AIY       0.108700
     52 H11          8.1240    -3.3380    -1.7310 hc         1 AIY       0.100200
     53 H12          5.8870    -3.9380    -1.0510 hc         1 AIY       0.095700
     54 H13          4.3900    -1.9040    -0.5130 hc         1 AIY       0.100200
     55 H14          4.5880     0.0790    -1.8270 hc         1 AIY       0.123700
     56 H15          6.4930     4.6250    -0.9100 hc         1 AIY       0.109700
     57 H16          6.8320     3.9350    -2.4940 hc         1 AIY       0.109700
     58 H17         11.0330     4.6590    -1.0400 h1         1 AIY       0.125700
     59 H18         13.1850     1.5920    -2.8990 hc         1 AIY       0.111700
     60 H19         12.4900    -0.8480    -2.8710 hc         1 AIY       0.100700
     61 H20         10.2430    -1.3910    -2.1960 hc         1 AIY       0.096700
     62 H21          8.7430     0.6320    -1.6990 hc         1 AIY       0.100700
     63 H22          9.0430     2.5960    -2.8740 hc         1 AIY       0.117700
     64 H23         10.8260     6.9930    -1.9740 hc         1 AIY       0.096700
     65 H24         10.8810     6.3280    -3.6150 hc         1 AIY       0.096700
     66 H25         12.7210     7.9380    -3.4370 ho         1 AIY       0.466000
@<TRIPOS>BOND
     1     1     2 1   
     2     1    41 1   
     3     2     3 1   
     4     2    11 1   
     5     2    42 1   
     6     3     4 1   
     7     3     4 1   
     8     3     5 1   
     9     5     6 1   
    10     5     6 1   
    11     5    10 1   
    12     6     7 1   
    13     6    43 1   
    14     7     8 1   
    15     7     8 1   
    16     7    44 1   
    17     8     9 1   
    18     8    45 1   
    19     9    10 1   
    20     9    10 1   
    21     9    46 1   
    22    10    47 1   
    23    11    12 1   
    24    11    48 1   
    25    11    49 1   
    26    12    13 1   
    27    12    13 1   
    28    12    14 1   
    29    14    15 1   
    30    15    16 1   
    31    15    24 1   
    32    15    50 1   
    33    16    17 1   
    34    16    17 1   
    35    16    18 1   
    36    18    19 1   
    37    18    19 1   
    38    18    23 1   
    39    19    20 1   
    40    19    51 1   
    41    20    21 1   
    42    20    21 1   
    43    20    52 1   
    44    21    22 1   
    45    21    53 1   
    46    22    23 1   
    47    22    23 1   
    48    22    54 1   
    49    23    55 1   
    50    24    25 1   
    51    24    56 1   
    52    24    57 1   
    53    25    26 1   
    54    25    26 1   
    55    25    27 1   
    56    27    28 1   
    57    28    29 1   
    58    28    37 1   
    59    28    58 1   
    60    29    30 1   
    61    29    30 1   
    62    29    31 1   
    63    31    32 1   
    64    31    32 1   
    65    31    36 1   
    66    32    33 1   
    67    32    59 1   
    68    33    34 1   
    69    33    34 1   
    70    33    60 1   
    71    34    35 1   
    72    34    61 1   
    73    35    36 1   
    74    35    36 1   
    75    35    62 1   
    76    36    63 1   
    77    37    38 1   
    78    37    64 1   
    79    37    65 1   
    80    38    39 1   
    81    38    39 1   
    82    38    40 1   
    83    40    66 1   
@<TRIPOS>SUBSTRUCTURE
     1 AIY         1 TEMP              0 ****  ****    0 ROOT
