@<TRIPOS>MOLECULE
AEU
   99   113     1     0     0
SMALL
abcg2


@<TRIPOS>ATOM
      1 O           16.5430     1.2980     0.5300 oh         1 AEU      -0.667000
      2 C           16.3840     0.1620     1.3770 c3         1 AEU       0.183300
      3 C1          17.6320    -0.7210     1.2210 c3         1 AEU      -0.080400
      4 C2          17.4850    -2.1710     1.7040 c3         1 AEU      -0.082400
      5 C3          18.8100    -2.9140     1.6000 c3         1 AEU      -0.084400
      6 C4          18.6740    -4.3610     2.0680 c3         1 AEU       0.151600
      7 O1          19.9640    -4.9660     1.9710 os         1 AEU      -0.407000
      8 C5          20.0160    -6.2670     2.3900 c3         1 AEU       0.175000
      9 C6          21.1110    -6.6100     3.1830 c3         1 AEU      -0.119700
     10 C7          21.3190    -7.9380     3.5580 c3         1 AEU      -0.058200
     11 C8          20.3990    -8.9170     3.1890 c3         1 AEU      -0.126700
     12 C9          19.3050    -8.5770     2.3930 c3         1 AEU      -0.058200
     13 C10         19.1210    -7.2550     1.9790 c3         1 AEU      -0.163700
     14 C11         15.1430    -0.5890     0.9720 c3         1 AEU      -0.167400
     15 C12         13.8870     0.2350     1.0730 c3         1 AEU       0.593000
     16 O2          13.8940     1.4410     1.3030 os         1 AEU      -0.512000
     17 O3          12.7420    -0.4240     0.7390 os         1 AEU      -0.455000
     18 C13         12.6440    -1.8200     1.0370 c3         1 AEU       0.172300
     19 C14         12.3260    -2.5970    -0.2380 c3         1 AEU      -0.093400
     20 C15         13.6260    -3.0960    -0.8680 c3         1 AEU      -0.081400
     21 C16         13.3630    -3.9050    -2.1200 c3         1 AEU      -0.084400
     22 C17         14.6740    -4.3890    -2.7300 c3         1 AEU       0.152600
     23 O4          14.3410    -5.0950    -3.9210 os         1 AEU      -0.406000
     24 C18         15.4160    -5.5800    -4.6110 c3         1 AEU       0.175000
     25 C19         15.3780    -5.4100    -5.9940 c3         1 AEU      -0.117700
     26 C20         16.3630    -5.9810    -6.7990 c3         1 AEU      -0.057700
     27 C21         17.4220    -6.6730    -6.2150 c3         1 AEU      -0.124700
     28 C22         17.4620    -6.8450    -4.8320 c3         1 AEU      -0.057700
     29 C23         16.4500    -6.3130    -4.0290 c3         1 AEU      -0.164700
     30 C24         11.6220    -2.0570     2.1170 c3         1 AEU      -0.099400
     31 C25         11.9690    -1.3220     3.4010 c3         1 AEU       0.596000
     32 O5          12.8810    -0.5110     3.5200 os         1 AEU      -0.566000
     33 O6          11.1510    -1.5870     4.4510 os         1 AEU      -0.463000
     34 C26         10.6810    -2.9280     4.6180 c3         1 AEU       0.186300
     35 C27          9.1580    -2.8690     4.6040 c3         1 AEU      -0.082400
     36 C28          8.5860    -4.1630     5.1440 c3         1 AEU      -0.076400
     37 C29          7.0780    -4.1760     5.1320 c3         1 AEU      -0.085400
     38 C30          6.5880    -5.4780     5.7520 c3         1 AEU       0.153600
     39 O7           5.1690    -5.4510     5.7040 os         1 AEU      -0.405000
     40 C31          4.5700    -6.5730     6.1990 c3         1 AEU       0.177000
     41 C32          3.5070    -7.0690     5.4460 c3         1 AEU      -0.117700
     42 C33          2.7450    -8.1310     5.9270 c3         1 AEU      -0.057700
     43 C34          3.0840    -8.7390     7.1330 c3         1 AEU      -0.125700
     44 C35          4.1480    -8.2440     7.8880 c3         1 AEU      -0.057700
     45 C36          4.8830    -7.1490     7.4300 c3         1 AEU      -0.165700
     46 C37         11.3210    -3.5670     5.8530 c3         1 AEU      -0.155400
     47 C38         12.8250    -3.6040     5.7560 c3         1 AEU       0.586000
     48 O8          13.4820    -3.2110     4.7950 os         1 AEU      -0.488000
     49 O9          13.4120    -4.2260     6.7990 oh         1 AEU      -0.622000
     50 H           15.7340     1.8420     0.6550 ho         1 AEU       0.461000
     51 H1          16.2890     0.5050     2.4120 h1         1 AEU       0.048700
     52 H2          17.9380    -0.7310     0.1670 hc         1 AEU       0.060700
     53 H3          18.4460    -0.2350     1.7690 hc         1 AEU       0.060700
     54 H4          16.7490    -2.7080     1.0910 hc         1 AEU       0.045700
     55 H5          17.1250    -2.1910     2.7400 hc         1 AEU       0.045700
     56 H6          19.5780    -2.4010     2.1900 hc         1 AEU       0.058200
     57 H7          19.1650    -2.9000     0.5610 hc         1 AEU       0.058200
     58 H8          17.9450    -4.8730     1.4320 h1         1 AEU       0.041200
     59 H9          18.3330    -4.3840     3.1100 h1         1 AEU       0.041200
     60 H10         21.8030    -5.8390     3.5100 hc         1 AEU       0.107700
     61 H11         22.2040    -8.2080     4.1270 hc         1 AEU       0.093700
     62 H12         20.5390    -9.9440     3.5150 hc         1 AEU       0.092700
     63 H13         18.6080    -9.3490     2.0760 hc         1 AEU       0.093700
     64 H14         18.2950    -7.0260     1.3150 hc         1 AEU       0.100700
     65 H15         15.0930    -1.4350     1.6510 hc         1 AEU       0.098200
     66 H16         15.2430    -0.9060    -0.0670 hc         1 AEU       0.098200
     67 H17         13.5450    -2.2500     1.4620 h1         1 AEU       0.073700
     68 H18         11.7000    -3.4670    -0.0090 hc         1 AEU       0.062200
     69 H19         11.7840    -1.9660    -0.9510 hc         1 AEU       0.062200
     70 H20         14.1830    -3.7050    -0.1410 hc         1 AEU       0.047200
     71 H21         14.2590    -2.2510    -1.1410 hc         1 AEU       0.047200
     72 H22         12.8170    -3.2920    -2.8460 hc         1 AEU       0.059700
     73 H23         12.7190    -4.7610    -1.8890 hc         1 AEU       0.059700
     74 H24         15.1850    -5.0320    -2.0060 h1         1 AEU       0.041200
     75 H25         15.3150    -3.5310    -2.9710 h1         1 AEU       0.041200
     76 H26         14.5770    -4.8290    -6.4450 hc         1 AEU       0.108700
     77 H27         16.2980    -5.8950    -7.8800 hc         1 AEU       0.093700
     78 H28         18.2120    -7.0820    -6.8390 hc         1 AEU       0.093700
     79 H29         18.2700    -7.4150    -4.3810 hc         1 AEU       0.093700
     80 H30         16.4750    -6.5070    -2.9620 hc         1 AEU       0.096700
     81 H31         11.7030    -3.1340     2.2680 hc         1 AEU       0.101700
     82 H32         10.6100    -1.7920     1.8060 hc         1 AEU       0.101700
     83 H33         10.9570    -3.5920     3.8050 h1         1 AEU       0.092700
     84 H34          8.7900    -2.0020     5.1660 hc         1 AEU       0.066700
     85 H35          8.8210    -2.7090     3.5680 hc         1 AEU       0.066700
     86 H36          8.9100    -4.2930     6.1820 hc         1 AEU       0.047200
     87 H37          8.9790    -5.0080     4.5630 hc         1 AEU       0.047200
     88 H38          6.6980    -4.0650     4.1110 hc         1 AEU       0.060200
     89 H39          6.6930    -3.3230     5.7040 hc         1 AEU       0.060200
     90 H40          6.9590    -5.5420     6.7820 h1         1 AEU       0.039200
     91 H41          6.9710    -6.3310     5.1780 h1         1 AEU       0.039200
     92 H42          3.2740    -6.6210     4.4840 hc         1 AEU       0.108700
     93 H43          1.8800    -8.4740     5.3660 hc         1 AEU       0.092700
     94 H44          2.5130    -9.5930     7.4890 hc         1 AEU       0.093700
     95 H45          4.3860    -8.6960     8.8480 hc         1 AEU       0.092700
     96 H46          5.6680    -6.7460     8.0610 hc         1 AEU       0.095700
     97 H47         11.0150    -4.6190     5.8890 hc         1 AEU       0.087200
     98 H48         11.0070    -3.0520     6.7640 hc         1 AEU       0.087200
     99 H49         12.8030    -4.5690     7.4800 ho         1 AEU       0.466000
@<TRIPOS>BOND
     1     1     2 1   
     2     1    50 1   
     3     2     3 1   
     4     2    14 1   
     5     2    51 1   
     6     3     4 1   
     7     3    52 1   
     8     3    53 1   
     9     4     5 1   
    10     4    54 1   
    11     4    55 1   
    12     5     6 1   
    13     5    56 1   
    14     5    57 1   
    15     6     7 1   
    16     6    58 1   
    17     6    59 1   
    18     7     8 1   
    19     8     9 1   
    20     8     9 1   
    21     8    13 1   
    22     9    10 1   
    23     9    60 1   
    24    10    11 1   
    25    10    11 1   
    26    10    61 1   
    27    11    12 1   
    28    11    62 1   
    29    12    13 1   
    30    12    13 1   
    31    12    63 1   
    32    13    64 1   
    33    14    15 1   
    34    14    65 1   
    35    14    66 1   
    36    15    16 1   
    37    15    16 1   
    38    15    17 1   
    39    17    18 1   
    40    18    19 1   
    41    18    30 1   
    42    18    67 1   
    43    19    20 1   
    44    19    68 1   
    45    19    69 1   
    46    20    21 1   
    47    20    70 1   
    48    20    71 1   
    49    21    22 1   
    50    21    72 1   
    51    21    73 1   
    52    22    23 1   
    53    22    74 1   
    54    22    75 1   
    55    23    24 1   
    56    24    25 1   
    57    24    25 1   
    58    24    29 1   
    59    25    26 1   
    60    25    76 1   
    61    26    27 1   
    62    26    27 1   
    63    26    77 1   
    64    27    28 1   
    65    27    78 1   
    66    28    29 1   
    67    28    29 1   
    68    28    79 1   
    69    29    80 1   
    70    30    31 1   
    71    30    81 1   
    72    30    82 1   
    73    31    32 1   
    74    31    32 1   
    75    31    33 1   
    76    33    34 1   
    77    34    35 1   
    78    34    46 1   
    79    34    83 1   
    80    35    36 1   
    81    35    84 1   
    82    35    85 1   
    83    36    37 1   
    84    36    86 1   
    85    36    87 1   
    86    37    38 1   
    87    37    88 1   
    88    37    89 1   
    89    38    39 1   
    90    38    90 1   
    91    38    91 1   
    92    39    40 1   
    93    40    41 1   
    94    40    41 1   
    95    40    45 1   
    96    41    42 1   
    97    41    92 1   
    98    42    43 1   
    99    42    43 1   
   100    42    93 1   
   101    43    44 1   
   102    43    94 1   
   103    44    45 1   
   104    44    45 1   
   105    44    95 1   
   106    45    96 1   
   107    46    47 1   
   108    46    97 1   
   109    46    98 1   
   110    47    48 1   
   111    47    48 1   
   112    47    49 1   
   113    49    99 1   
@<TRIPOS>SUBSTRUCTURE
     1 AEU         1 TEMP              0 ****  ****    0 ROOT
