@<TRIPOS>MOLECULE
AFS
   99   113     1     0     0
SMALL
abcg2


@<TRIPOS>ATOM
      1 O           13.7110     2.2050    -3.2960 oh         1 AFS      -0.668000
      2 C           13.8630     3.0390    -2.1440 c3         1 AFS       0.183300
      3 C1          15.2810     3.6380    -2.1070 c3         1 AFS      -0.076400
      4 C2          16.0210     3.3780    -3.4130 c3         1 AFS      -0.085400
      5 C3          17.4850     3.7480    -3.3570 c3         1 AFS       0.153600
      6 O1          18.0390     3.4310    -4.6410 os         1 AFS      -0.403000
      7 C4          19.3740     3.7030    -4.7330 c3         1 AFS       0.175000
      8 C5          20.2950     3.3030    -3.7690 c3         1 AFS      -0.162700
      9 C6          21.6390     3.6450    -3.9060 c3         1 AFS      -0.055700
     10 C7          22.0770     4.3670    -5.0210 c3         1 AFS      -0.107000
     11 C8          23.5150     4.7690    -5.1450 c3         1 AFS      -0.054100
     12 C9          21.1530     4.7130    -6.0150 c3         1 AFS      -0.060700
     13 C10         19.8060     4.3690    -5.8770 c3         1 AFS      -0.114700
     14 C11         13.6080     2.1870    -0.9080 c3         1 AFS      -0.167400
     15 C12         12.2070     1.6070    -0.9540 c3         1 AFS       0.596000
     16 O2          11.4550     1.7860    -1.9110 os         1 AFS      -0.513000
     17 O3          11.8270     0.7770     0.0500 os         1 AFS      -0.458000
     18 C13         12.6030     0.6030     1.2460 c3         1 AFS       0.182300
     19 C14         12.7470    -0.9120     1.4770 c3         1 AFS      -0.094400
     20 C15         13.3400    -1.1550     2.8600 c3         1 AFS      -0.093400
     21 C16         14.0360    -2.4820     3.0230 c3         1 AFS       0.155600
     22 O4          14.5170    -2.5120     4.3740 os         1 AFS      -0.403000
     23 C17         15.1980    -3.6580     4.6690 c3         1 AFS       0.173000
     24 C18         16.1900    -4.1790     3.8420 c3         1 AFS      -0.161700
     25 C19         16.8150    -5.3770     4.1750 c3         1 AFS      -0.055700
     26 C20         16.4750    -6.0510     5.3520 c3         1 AFS      -0.105000
     27 C21         17.1220    -7.3620     5.6850 c3         1 AFS      -0.055100
     28 C22         15.5210    -5.4890     6.2090 c3         1 AFS      -0.060700
     29 C23         14.8930    -4.2860     5.8750 c3         1 AFS      -0.112700
     30 C24         11.9070     1.2850     2.4280 c3         1 AFS      -0.149400
     31 C25         11.7840     2.7800     2.2870 c3         1 AFS       0.599000
     32 O5          12.1030     3.3970     1.2740 os         1 AFS      -0.513000
     33 O6          11.2880     3.4700     3.3380 os         1 AFS      -0.455000
     34 C26         10.7880     2.8500     4.5390 c3         1 AFS       0.179300
     35 C27          9.2500     2.8660     4.4920 c3         1 AFS      -0.091400
     36 C28          8.6830     2.9390     3.0680 c3         1 AFS      -0.090400
     37 C29          7.1650     2.9470     3.0520 c3         1 AFS       0.155600
     38 O7           6.7410     3.0200     1.6850 os         1 AFS      -0.403000
     39 C30          5.3800     3.0310     1.5440 c3         1 AFS       0.169000
     40 C31          4.5460     3.8610     2.2910 c3         1 AFS      -0.161700
     41 C32          3.1630     3.8010     2.1210 c3         1 AFS      -0.056700
     42 C33          2.6000     2.9290     1.1840 c3         1 AFS      -0.102000
     43 C34          1.1100     2.8400     1.0310 c3         1 AFS      -0.056100
     44 C35          3.4460     2.1390     0.3960 c3         1 AFS      -0.059700
     45 C36          4.8330     2.2000     0.5670 c3         1 AFS      -0.109700
     46 C37         11.3510     3.6490     5.7220 c3         1 AFS      -0.151400
     47 C38         12.8660     3.6010     5.7040 c3         1 AFS       0.588000
     48 O8          13.5340     2.9860     4.8830 os         1 AFS      -0.510000
     49 O9          13.4510     4.2880     6.7080 oh         1 AFS      -0.612000
     50 H           12.7740     1.9210    -3.3180 ho         1 AFS       0.464000
     51 H1          13.1320     3.8540    -2.2200 h1         1 AFS       0.052700
     52 H2          15.2160     4.7180    -1.9130 hc         1 AFS       0.053200
     53 H3          15.8560     3.2360    -1.2610 hc         1 AFS       0.053200
     54 H4          15.5230     3.9120    -4.2320 hc         1 AFS       0.066700
     55 H5          15.9770     2.3100    -3.6620 hc         1 AFS       0.066700
     56 H6          17.9520     3.1550    -2.5630 h1         1 AFS       0.038200
     57 H7          17.6020     4.8160    -3.1450 h1         1 AFS       0.038200
     58 H8          19.9910     2.7150    -2.9100 hc         1 AFS       0.096700
     59 H9          22.3390     3.3450    -3.1310 hc         1 AFS       0.090700
     60 H10         24.1020     4.4070    -4.2930 hc         1 AFS       0.041367
     61 H11         23.6000     5.8600    -5.1680 hc         1 AFS       0.041367
     62 H12         23.9530     4.3490    -6.0550 hc         1 AFS       0.041367
     63 H13         21.4730     5.2610    -6.8980 hc         1 AFS       0.092700
     64 H14         19.0920     4.6390    -6.6500 hc         1 AFS       0.108700
     65 H15         13.7670     2.8160    -0.0320 hc         1 AFS       0.099200
     66 H16         14.3220     1.3570    -0.8860 hc         1 AFS       0.099200
     67 H17         13.6130     1.0050     1.1470 h1         1 AFS       0.076700
     68 H18         11.7780    -1.4210     1.3800 hc         1 AFS       0.062200
     69 H19         13.3790    -1.3390     0.6860 hc         1 AFS       0.062200
     70 H20         12.5490    -1.0700     3.6160 hc         1 AFS       0.065700
     71 H21         14.0750    -0.3710     3.0890 hc         1 AFS       0.065700
     72 H22         14.8560    -2.5200     2.3000 h1         1 AFS       0.040700
     73 H23         13.3340    -3.3040     2.8510 h1         1 AFS       0.040700
     74 H24         16.4980    -3.6640     2.9390 hc         1 AFS       0.096700
     75 H25         17.5680    -5.7810     3.5030 hc         1 AFS       0.091700
     76 H26         17.8510    -7.6490     4.9200 hc         1 AFS       0.041700
     77 H27         16.3660    -8.1510     5.7370 hc         1 AFS       0.041700
     78 H28         17.6480    -7.2960     6.6410 hc         1 AFS       0.041700
     79 H29         15.2530    -5.9890     7.1370 hc         1 AFS       0.093700
     80 H30         14.1530    -3.8550     6.5430 hc         1 AFS       0.108700
     81 H31         12.5200     1.1230     3.3170 hc         1 AFS       0.111700
     82 H32         10.9190     0.8370     2.5730 hc         1 AFS       0.111700
     83 H33         11.1190     1.8140     4.6420 h1         1 AFS       0.079700
     84 H34          8.8760     1.9670     4.9970 hc         1 AFS       0.060200
     85 H35          8.8680     3.7180     5.0660 hc         1 AFS       0.060200
     86 H36          9.0430     2.1020     2.4610 hc         1 AFS       0.064200
     87 H37          9.0310     3.8540     2.5690 hc         1 AFS       0.064200
     88 H38          6.8260     3.8150     3.6250 h1         1 AFS       0.040200
     89 H39          6.7860     2.0260     3.5100 h1         1 AFS       0.040200
     90 H40          4.9520     4.5740     2.9990 hc         1 AFS       0.093700
     91 H41          2.5300     4.4430     2.7270 hc         1 AFS       0.091700
     92 H42          0.6000     3.5330     1.7090 hc         1 AFS       0.042700
     93 H43          0.7680     1.8280     1.2710 hc         1 AFS       0.042700
     94 H44          0.8130     3.0930     0.0090 hc         1 AFS       0.042700
     95 H45          3.0310     1.4660    -0.3510 hc         1 AFS       0.095700
     96 H46          5.4830     1.5860    -0.0520 hc         1 AFS       0.111700
     97 H47         10.9930     3.2160     6.6620 hc         1 AFS       0.093200
     98 H48         11.0350     4.6960     5.6520 hc         1 AFS       0.093200
     99 H49         12.8500     4.7420     7.3270 ho         1 AFS       0.468000
@<TRIPOS>BOND
     1     1     2 1   
     2     1    50 1   
     3     2     3 1   
     4     2    14 1   
     5     2    51 1   
     6     3     4 1   
     7     3    52 1   
     8     3    53 1   
     9     4     5 1   
    10     4    54 1   
    11     4    55 1   
    12     5     6 1   
    13     5    56 1   
    14     5    57 1   
    15     6     7 1   
    16     7     8 1   
    17     7     8 1   
    18     7    13 1   
    19     8     9 1   
    20     8    58 1   
    21     9    10 1   
    22     9    10 1   
    23     9    59 1   
    24    10    11 1   
    25    10    12 1   
    26    11    60 1   
    27    11    61 1   
    28    11    62 1   
    29    12    13 1   
    30    12    13 1   
    31    12    63 1   
    32    13    64 1   
    33    14    15 1   
    34    14    65 1   
    35    14    66 1   
    36    15    16 1   
    37    15    16 1   
    38    15    17 1   
    39    17    18 1   
    40    18    19 1   
    41    18    30 1   
    42    18    67 1   
    43    19    20 1   
    44    19    68 1   
    45    19    69 1   
    46    20    21 1   
    47    20    70 1   
    48    20    71 1   
    49    21    22 1   
    50    21    72 1   
    51    21    73 1   
    52    22    23 1   
    53    23    24 1   
    54    23    24 1   
    55    23    29 1   
    56    24    25 1   
    57    24    74 1   
    58    25    26 1   
    59    25    26 1   
    60    25    75 1   
    61    26    27 1   
    62    26    28 1   
    63    27    76 1   
    64    27    77 1   
    65    27    78 1   
    66    28    29 1   
    67    28    29 1   
    68    28    79 1   
    69    29    80 1   
    70    30    31 1   
    71    30    81 1   
    72    30    82 1   
    73    31    32 1   
    74    31    32 1   
    75    31    33 1   
    76    33    34 1   
    77    34    35 1   
    78    34    46 1   
    79    34    83 1   
    80    35    36 1   
    81    35    84 1   
    82    35    85 1   
    83    36    37 1   
    84    36    86 1   
    85    36    87 1   
    86    37    38 1   
    87    37    88 1   
    88    37    89 1   
    89    38    39 1   
    90    39    40 1   
    91    39    40 1   
    92    39    45 1   
    93    40    41 1   
    94    40    90 1   
    95    41    42 1   
    96    41    42 1   
    97    41    91 1   
    98    42    43 1   
    99    42    44 1   
   100    43    92 1   
   101    43    93 1   
   102    43    94 1   
   103    44    45 1   
   104    44    45 1   
   105    44    95 1   
   106    45    96 1   
   107    46    47 1   
   108    46    97 1   
   109    46    98 1   
   110    47    48 1   
   111    47    48 1   
   112    47    49 1   
   113    49    99 1   
@<TRIPOS>SUBSTRUCTURE
     1 AFS         1 TEMP              0 ****  ****    0 ROOT
