@<TRIPOS>MOLECULE
AIQ
  102   119     1     0     0
SMALL
abcg2


@<TRIPOS>ATOM
      1 O            9.6470     3.5290     1.9140 oh         1 AIQ      -0.670000
      2 C           10.8250     2.8800     2.4060 c3         1 AIQ       0.182300
      3 C1          12.0070     3.7620     1.9470 c3         1 AIQ      -0.080400
      4 C2          13.3270     3.0000     1.8730 c3         1 AIQ      -0.084400
      5 C3          14.4880     3.9040     1.5150 c3         1 AIQ      -0.073400
      6 C4          15.7770     3.0910     1.4550 c3         1 AIQ      -0.127400
      7 C5          16.9460     3.9930     1.1330 c3         1 AIQ       0.458000
      8 O1          16.8370     5.2050     0.9680 os         1 AIQ      -0.487000
      9 C6          18.2840     3.3780     1.0110 c3         1 AIQ      -0.156000
     10 C7          19.3880     4.0690     1.5220 c3         1 AIQ      -0.034700
     11 C8          20.6740     3.5950     1.2680 c3         1 AIQ      -0.105700
     12 C9          20.8510     2.4010     0.5680 c3         1 AIQ      -0.062700
     13 C10         19.7470     1.6980     0.0870 c3         1 AIQ      -0.105700
     14 C11         18.4600     2.1880     0.3020 c3         1 AIQ      -0.052700
     15 C12         10.9250     1.4800     1.8240 c3         1 AIQ      -0.165400
     16 C13          9.7370     0.5920     1.9950 c3         1 AIQ       0.594000
     17 O2           8.7850     0.9290     2.6930 os         1 AIQ      -0.514000
     18 O3           9.7210    -0.5740     1.2940 os         1 AIQ      -0.457000
     19 C14         10.7200    -0.9780     0.3100 c3         1 AIQ       0.175300
     20 C15         10.3090    -0.3850    -1.0560 c3         1 AIQ      -0.093400
     21 C16         11.1890     0.7890    -1.4510 c3         1 AIQ      -0.082400
     22 C17         10.7770     1.4720    -2.7210 c3         1 AIQ      -0.073400
     23 C18         11.6210     2.7390    -2.8760 c3         1 AIQ      -0.127400
     24 C19         11.2080     3.4490    -4.1360 c3         1 AIQ       0.459000
     25 O4          10.2750     3.0720    -4.8400 os         1 AIQ      -0.488000
     26 C20         11.9600     4.6520    -4.5330 c3         1 AIQ      -0.158000
     27 C21         11.2570     5.7140    -5.1060 c3         1 AIQ      -0.033700
     28 C22         11.9590     6.7780    -5.6660 c3         1 AIQ      -0.105700
     29 C23         13.3520     6.8130    -5.5840 c3         1 AIQ      -0.060700
     30 C24         14.0480     5.7680    -4.9770 c3         1 AIQ      -0.105700
     31 C25         13.3540     4.6810    -4.4530 c3         1 AIQ      -0.051700
     32 C26         10.7010    -2.5100     0.2020 c3         1 AIQ      -0.139400
     33 C27         11.0960    -3.1800     1.4990 c3         1 AIQ       0.599000
     34 O5          11.4400    -2.5430     2.4900 os         1 AIQ      -0.515000
     35 O6          11.0850    -4.5390     1.5340 os         1 AIQ      -0.452000
     36 C28         10.6850    -5.3840     0.4270 c3         1 AIQ       0.174300
     37 C29          9.1530    -5.4390     0.4400 c3         1 AIQ      -0.108400
     38 C30          8.6000    -6.5780    -0.3920 c3         1 AIQ      -0.079400
     39 C31          7.0890    -6.5520    -0.3950 c3         1 AIQ      -0.077400
     40 C32          6.5660    -7.7300    -1.2010 c3         1 AIQ      -0.127400
     41 C33          5.0570    -7.7110    -1.2230 c3         1 AIQ       0.459000
     42 O7           4.3870    -6.8360    -0.6840 os         1 AIQ      -0.485000
     43 C34          4.3660    -8.8010    -1.9390 c3         1 AIQ      -0.157000
     44 C35          3.2250    -8.4920    -2.6840 c3         1 AIQ      -0.033700
     45 C36          2.4610    -9.5230    -3.2280 c3         1 AIQ      -0.104200
     46 C37          2.8760   -10.8470    -3.0860 c3         1 AIQ      -0.060700
     47 C38          4.0330   -11.1500    -2.3690 c3         1 AIQ      -0.104200
     48 C39          4.7790   -10.1270    -1.7870 c3         1 AIQ      -0.053700
     49 C40         11.3040    -6.7860     0.6100 c3         1 AIQ      -0.134400
     50 C41         12.8090    -6.7400     0.5730 c3         1 AIQ       0.585000
     51 O8          13.4680    -5.7350     0.4060 os         1 AIQ      -0.498000
     52 O9          13.3790    -7.9670     0.6750 oh         1 AIQ      -0.616000
     53 H            8.8850     2.9650     2.1550 ho         1 AIQ       0.461000
     54 H1          10.7750     2.8330     3.4950 h1         1 AIQ       0.049700
     55 H2          11.7970     4.2100     0.9640 hc         1 AIQ       0.059200
     56 H3          12.0940     4.6100     2.6370 hc         1 AIQ       0.059200
     57 H4          13.2710     2.2260     1.0960 hc         1 AIQ       0.044200
     58 H5          13.5160     2.5030     2.8300 hc         1 AIQ       0.044200
     59 H6          14.5770     4.7070     2.2550 hc         1 AIQ       0.056200
     60 H7          14.3030     4.3740     0.5410 hc         1 AIQ       0.056200
     61 H8          15.6750     2.3150     0.6880 hc         1 AIQ       0.068200
     62 H9          15.9620     2.6070     2.4210 hc         1 AIQ       0.068200
     63 H10         19.2470     4.9810     2.0990 hc         1 AIQ       0.116700
     64 H11         21.5370     4.1680     1.5950 hc         1 AIQ       0.096700
     65 H12         21.8540     2.0220     0.3920 hc         1 AIQ       0.094700
     66 H13         19.8900     0.7830    -0.4830 hc         1 AIQ       0.096700
     67 H14         17.6170     1.6530    -0.1240 hc         1 AIQ       0.095700
     68 H15         11.8330     0.9470     2.1090 hc         1 AIQ       0.098700
     69 H16         10.9530     1.7160     0.7960 hc         1 AIQ       0.098700
     70 H17         11.7240    -0.6690     0.6190 h1         1 AIQ       0.077700
     71 H18         10.3940    -1.1340    -1.8520 hc         1 AIQ       0.061700
     72 H19          9.2590    -0.0680    -1.0230 hc         1 AIQ       0.061700
     73 H20         12.2500     0.5200    -1.4240 hc         1 AIQ       0.044200
     74 H21         11.0590     1.6100    -0.7820 hc         1 AIQ       0.044200
     75 H22          9.7190     1.7600    -2.6390 hc         1 AIQ       0.057700
     76 H23         10.8870     0.7980    -3.5720 hc         1 AIQ       0.057700
     77 H24         12.6800     2.4620    -2.9000 hc         1 AIQ       0.068700
     78 H25         11.4690     3.4230    -2.0270 hc         1 AIQ       0.068700
     79 H26         10.1690     5.7020    -5.1340 hc         1 AIQ       0.116700
     80 H27         11.4230     7.5670    -6.1860 hc         1 AIQ       0.098200
     81 H28         13.8970     7.6550    -6.0020 hc         1 AIQ       0.095700
     82 H29         15.1340     5.7850    -4.9400 hc         1 AIQ       0.098200
     83 H30         13.9160     3.8540    -4.0300 hc         1 AIQ       0.095700
     84 H31         11.4110    -2.8180    -0.5740 hc         1 AIQ       0.099200
     85 H32          9.6910    -2.8050    -0.0790 hc         1 AIQ       0.099200
     86 H33         11.0490    -4.9700    -0.5200 h1         1 AIQ       0.079700
     87 H34          8.7880    -5.5010     1.4740 hc         1 AIQ       0.064700
     88 H35          8.7370    -4.5050     0.0530 hc         1 AIQ       0.064700
     89 H36          8.9160    -7.5370     0.0300 hc         1 AIQ       0.041200
     90 H37          8.9860    -6.5090    -1.4160 hc         1 AIQ       0.041200
     91 H38          6.7260    -5.6060    -0.8130 hc         1 AIQ       0.060700
     92 H39          6.7200    -6.6130     0.6370 hc         1 AIQ       0.060700
     93 H40          6.9290    -8.6580    -0.7480 hc         1 AIQ       0.067200
     94 H41          6.9360    -7.6720    -2.2320 hc         1 AIQ       0.067200
     95 H42          2.9230    -7.4560    -2.8250 hc         1 AIQ       0.116700
     96 H43          1.5300    -9.2950    -3.7400 hc         1 AIQ       0.098700
     97 H44          2.2880   -11.6480    -3.5290 hc         1 AIQ       0.096700
     98 H45          4.3350   -12.1850    -2.2340 hc         1 AIQ       0.098700
     99 H46          5.6460   -10.3850    -1.1890 hc         1 AIQ       0.092700
    100 H47         11.0090    -7.4320    -0.2260 hc         1 AIQ       0.092700
    101 H48         10.9700    -7.2350     1.5520 hc         1 AIQ       0.092700
    102 H49         12.7690    -8.7220     0.7750 ho         1 AIQ       0.467000
@<TRIPOS>BOND
     1     1     2 1   
     2     1    53 1   
     3     2     3 1   
     4     2    15 1   
     5     2    54 1   
     6     3     4 1   
     7     3    55 1   
     8     3    56 1   
     9     4     5 1   
    10     4    57 1   
    11     4    58 1   
    12     5     6 1   
    13     5    59 1   
    14     5    60 1   
    15     6     7 1   
    16     6    61 1   
    17     6    62 1   
    18     7     8 1   
    19     7     8 1   
    20     7     9 1   
    21     9    10 1   
    22     9    10 1   
    23     9    14 1   
    24    10    11 1   
    25    10    63 1   
    26    11    12 1   
    27    11    12 1   
    28    11    64 1   
    29    12    13 1   
    30    12    65 1   
    31    13    14 1   
    32    13    14 1   
    33    13    66 1   
    34    14    67 1   
    35    15    16 1   
    36    15    68 1   
    37    15    69 1   
    38    16    17 1   
    39    16    17 1   
    40    16    18 1   
    41    18    19 1   
    42    19    20 1   
    43    19    32 1   
    44    19    70 1   
    45    20    21 1   
    46    20    71 1   
    47    20    72 1   
    48    21    22 1   
    49    21    73 1   
    50    21    74 1   
    51    22    23 1   
    52    22    75 1   
    53    22    76 1   
    54    23    24 1   
    55    23    77 1   
    56    23    78 1   
    57    24    25 1   
    58    24    25 1   
    59    24    26 1   
    60    26    27 1   
    61    26    27 1   
    62    26    31 1   
    63    27    28 1   
    64    27    79 1   
    65    28    29 1   
    66    28    29 1   
    67    28    80 1   
    68    29    30 1   
    69    29    81 1   
    70    30    31 1   
    71    30    31 1   
    72    30    82 1   
    73    31    83 1   
    74    32    33 1   
    75    32    84 1   
    76    32    85 1   
    77    33    34 1   
    78    33    34 1   
    79    33    35 1   
    80    35    36 1   
    81    36    37 1   
    82    36    49 1   
    83    36    86 1   
    84    37    38 1   
    85    37    87 1   
    86    37    88 1   
    87    38    39 1   
    88    38    89 1   
    89    38    90 1   
    90    39    40 1   
    91    39    91 1   
    92    39    92 1   
    93    40    41 1   
    94    40    93 1   
    95    40    94 1   
    96    41    42 1   
    97    41    42 1   
    98    41    43 1   
    99    43    44 1   
   100    43    44 1   
   101    43    48 1   
   102    44    45 1   
   103    44    95 1   
   104    45    46 1   
   105    45    46 1   
   106    45    96 1   
   107    46    47 1   
   108    46    97 1   
   109    47    48 1   
   110    47    48 1   
   111    47    98 1   
   112    48    99 1   
   113    49    50 1   
   114    49   100 1   
   115    49   101 1   
   116    50    51 1   
   117    50    51 1   
   118    50    52 1   
   119    52   102 1   
@<TRIPOS>SUBSTRUCTURE
     1 AIQ         1 TEMP              0 ****  ****    0 ROOT
