@<TRIPOS>MOLECULE
AIE
   33    35     1     0     0
SMALL
abcg2


@<TRIPOS>ATOM
      1 O           12.5640     0.4130     4.0600 oh         1 AIE      -0.667000
      2 C           13.2630    -0.6540     3.4300 c3         1 AIE       0.334300
      3 S           15.0550    -0.4530     3.7090 sh         1 AIE      -0.422800
      4 C1          12.9530    -0.6740     1.9330 c3         1 AIE      -0.160400
      5 C2          11.4760    -0.9180     1.7110 c3         1 AIE       0.600000
      6 O1          10.7000    -1.0790     2.6530 os         1 AIE      -0.504000
      7 O2          10.9980    -0.8880     0.4410 os         1 AIE      -0.457000
      8 C3          11.8470    -0.7310    -0.7090 c3         1 AIE       0.320300
      9 S1          11.8010     1.0180    -1.2650 sh         1 AIE      -0.404800
     10 C4          11.3810    -1.6490    -1.8460 c3         1 AIE      -0.148400
     11 C5          11.4870    -3.1050    -1.4380 c3         1 AIE       0.602000
     12 O3          11.9290    -3.4420    -0.3410 os         1 AIE      -0.499000
     13 O4          11.0590    -4.0530    -2.3160 os         1 AIE      -0.457000
     14 C6          10.6490    -3.7630    -3.6670 c3         1 AIE       0.323300
     15 S2           8.8210    -3.7330    -3.7580 sh         1 AIE      -0.416800
     16 C7          11.2070    -4.8180    -4.6390 c3         1 AIE      -0.155400
     17 C8          12.7150    -4.7520    -4.6390 c3         1 AIE       0.586000
     18 O5          13.3690    -3.9640    -3.9640 os         1 AIE      -0.506000
     19 O6          13.3140    -5.6170    -5.4850 oh         1 AIE      -0.609000
     20 H           11.6160     0.1700     4.0080 ho         1 AIE       0.474000
     21 H1          12.9690    -1.5950     3.9070 h2         1 AIE       0.080700
     22 H2          15.1690     0.7800     3.1950 hs         1 AIE       0.241800
     23 H3          13.5210    -1.4800     1.4590 hc         1 AIE       0.113700
     24 H4          13.2040     0.2980     1.4960 hc         1 AIE       0.113700
     25 H5          12.8880    -0.9670    -0.4840 h2         1 AIE       0.109700
     26 H6          10.4770     1.1060    -1.4710 hs         1 AIE       0.232800
     27 H7          12.0380    -1.4880    -2.7070 hc         1 AIE       0.123200
     28 H8          10.3390    -1.4360    -2.1050 hc         1 AIE       0.123200
     29 H9          11.0000    -2.7830    -3.9930 h2         1 AIE       0.109700
     30 H10          8.5990    -4.9760    -3.3000 hs         1 AIE       0.240800
     31 H11         10.8680    -4.5960    -5.6590 hc         1 AIE       0.104700
     32 H12         10.8990    -5.8300    -4.3570 hc         1 AIE       0.104700
     33 H13         12.7360    -6.2020    -6.0100 ho         1 AIE       0.469000
@<TRIPOS>BOND
     1     1     2 1   
     2     1    20 1   
     3     2     3 1   
     4     2     4 1   
     5     2    21 1   
     6     3    22 1   
     7     4     5 1   
     8     4    23 1   
     9     4    24 1   
    10     5     6 1   
    11     5     6 1   
    12     5     7 1   
    13     7     8 1   
    14     8     9 1   
    15     8    10 1   
    16     8    25 1   
    17     9    26 1   
    18    10    11 1   
    19    10    27 1   
    20    10    28 1   
    21    11    12 1   
    22    11    12 1   
    23    11    13 1   
    24    13    14 1   
    25    14    15 1   
    26    14    16 1   
    27    14    29 1   
    28    15    30 1   
    29    16    17 1   
    30    16    31 1   
    31    16    32 1   
    32    17    18 1   
    33    17    18 1   
    34    17    19 1   
    35    19    33 1   
@<TRIPOS>SUBSTRUCTURE
     1 AIE         1 TEMP              0 ****  ****    0 ROOT
