@<TRIPOS>MOLECULE
ADW
   87   101     1     0     0
SMALL
abcg2


@<TRIPOS>ATOM
      1 O           14.2090     3.5730    -1.0070 oh         1 ADW      -0.668000
      2 C           14.7090     2.2970    -0.6050 c3         1 ADW       0.183300
      3 C1          15.6120     1.7880    -1.7330 c3         1 ADW      -0.082400
      4 C2          17.0540     1.8250    -1.2680 c3         1 ADW      -0.081400
      5 C3          18.0260     1.3460    -2.3400 c3         1 ADW      -0.042400
      6 C4          19.4630     1.3680    -1.8740 c3         1 ADW      -0.073000
      7 C5          20.4510     0.7930    -2.6800 c3         1 ADW      -0.087700
      8 C6          21.7710     0.7290    -2.2330 c3         1 ADW      -0.089700
      9 C7          22.1310     1.3130    -1.0180 c3         1 ADW      -0.093700
     10 C8          21.1660     1.9130    -0.2220 c3         1 ADW      -0.089700
     11 C9          19.8430     1.9310    -0.6450 c3         1 ADW      -0.086700
     12 C10         13.5570     1.3270    -0.3610 c3         1 ADW      -0.167400
     13 C11         12.6680     1.8430     0.7500 c3         1 ADW       0.593000
     14 O1          12.8260     2.9500     1.2570 os         1 ADW      -0.510000
     15 O2          11.5710     1.0980     1.0400 os         1 ADW      -0.461000
     16 C12         11.6580    -0.3360     1.0710 c3         1 ADW       0.177300
     17 C13         10.9550    -0.8510    -0.1920 c3         1 ADW      -0.097400
     18 C14         10.8700    -2.3590    -0.1790 c3         1 ADW      -0.079400
     19 C15         10.2210    -2.9440    -1.4200 c3         1 ADW      -0.041400
     20 C16         10.1330    -4.4510    -1.3390 c3         1 ADW      -0.078000
     21 C17          9.3930    -5.1330    -2.3090 c3         1 ADW      -0.087700
     22 C18          9.2280    -6.5140    -2.2180 c3         1 ADW      -0.086700
     23 C19          9.8650    -7.2370    -1.2090 c3         1 ADW      -0.089700
     24 C20         10.6230    -6.5760    -0.2520 c3         1 ADW      -0.086700
     25 C21         10.7460    -5.1940    -0.3140 c3         1 ADW      -0.085700
     26 C22         10.9890    -0.8520     2.3590 c3         1 ADW      -0.138400
     27 C23         11.6910    -0.3480     3.6000 c3         1 ADW       0.597000
     28 O3          12.6360     0.4320     3.5640 os         1 ADW      -0.507000
     29 O4          11.1630    -0.7520     4.7900 os         1 ADW      -0.474000
     30 C24         10.7270    -2.1190     4.9760 c3         1 ADW       0.174300
     31 C25          9.1850    -2.1140     4.9480 c3         1 ADW      -0.104400
     32 C26          8.6040    -2.2440     6.3400 c3         1 ADW      -0.079400
     33 C27          7.0910    -2.2730     6.3990 c3         1 ADW      -0.042400
     34 C28          6.6040    -2.4410     7.8210 c3         1 ADW      -0.077000
     35 C29          5.2380    -2.3080     8.0740 c3         1 ADW      -0.087700
     36 C30          4.7610    -2.3670     9.3830 c3         1 ADW      -0.087700
     37 C31          5.6270    -2.6470    10.4400 c3         1 ADW      -0.090700
     38 C32          6.9830    -2.8140    10.2010 c3         1 ADW      -0.087700
     39 C33          7.4670    -2.7020     8.9040 c3         1 ADW      -0.086700
     40 C34         11.3440    -2.6540     6.2900 c3         1 ADW      -0.136400
     41 C35         12.8440    -2.6840     6.2410 c3         1 ADW       0.580000
     42 O5          13.5130    -2.3780     5.2590 os         1 ADW      -0.491000
     43 O6          13.4100    -3.1410     7.3800 oh         1 ADW      -0.625000
     44 H           13.7010     3.9180    -0.2400 ho         1 ADW       0.461000
     45 H1          15.2740     2.4400     0.3260 h1         1 ADW       0.049700
     46 H2          15.3660     0.7570    -2.0140 hc         1 ADW       0.058200
     47 H3          15.5110     2.4110    -2.6290 hc         1 ADW       0.058200
     48 H4          17.1570     1.1940    -0.3730 hc         1 ADW       0.049700
     49 H5          17.2940     2.8560    -0.9790 hc         1 ADW       0.049700
     50 H6          17.9270     1.9700    -3.2370 hc         1 ADW       0.048700
     51 H7          17.7640     0.3160    -2.6200 hc         1 ADW       0.048700
     52 H8          20.1960     0.3830    -3.6560 hc         1 ADW       0.090700
     53 H9          22.5210     0.2180    -2.8290 hc         1 ADW       0.090700
     54 H10         23.1660     1.3050    -0.6910 hc         1 ADW       0.090700
     55 H11         21.4250     2.3590     0.7340 hc         1 ADW       0.090700
     56 H12         19.1200     2.3940     0.0200 hc         1 ADW       0.096700
     57 H13         13.9830     0.3530    -0.1040 hc         1 ADW       0.099200
     58 H14         12.9550     1.2460    -1.2720 hc         1 ADW       0.099200
     59 H15         12.7000    -0.6750     1.0870 h1         1 ADW       0.080700
     60 H16          9.9550    -0.4100    -0.2810 hc         1 ADW       0.062700
     61 H17         11.5070    -0.5280    -1.0830 hc         1 ADW       0.062700
     62 H18         10.2690    -2.6850     0.6780 hc         1 ADW       0.047200
     63 H19         11.8870    -2.7520    -0.0560 hc         1 ADW       0.047200
     64 H20         10.7830    -2.6510    -2.3130 hc         1 ADW       0.050700
     65 H21          9.2050    -2.5350    -1.5060 hc         1 ADW       0.050700
     66 H22          8.9360    -4.5900    -3.1330 hc         1 ADW       0.089700
     67 H23          8.5960    -7.0300    -2.9340 hc         1 ADW       0.093700
     68 H24          9.7760    -8.3170    -1.1700 hc         1 ADW       0.093700
     69 H25         11.1130    -7.1220     0.5480 hc         1 ADW       0.093700
     70 H26         11.3340    -4.7220     0.4680 hc         1 ADW       0.091700
     71 H27         11.0580    -1.9400     2.3640 hc         1 ADW       0.097700
     72 H28          9.9390    -0.5440     2.3860 hc         1 ADW       0.097700
     73 H29         11.0930    -2.7560     4.1660 h1         1 ADW       0.058700
     74 H30          8.8020    -1.1970     4.4850 hc         1 ADW       0.058700
     75 H31          8.8290    -2.9560     4.3440 hc         1 ADW       0.058700
     76 H32          8.9700    -1.4160     6.9620 hc         1 ADW       0.054700
     77 H33          8.9590    -3.1910     6.7610 hc         1 ADW       0.054700
     78 H34          6.7150    -3.0990     5.7850 hc         1 ADW       0.050700
     79 H35          6.7020    -1.3330     5.9890 hc         1 ADW       0.050700
     80 H36          4.5430    -2.1430     7.2540 hc         1 ADW       0.090700
     81 H37          3.7090    -2.1850     9.5800 hc         1 ADW       0.093700
     82 H38          5.2450    -2.7350    11.4510 hc         1 ADW       0.092700
     83 H39          7.6730    -3.0130    11.0170 hc         1 ADW       0.093700
     84 H40          8.5390    -2.8150     8.7750 hc         1 ADW       0.094700
     85 H41         11.0070    -3.6840     6.4570 hc         1 ADW       0.098200
     86 H42         11.0640    -2.0250     7.1430 hc         1 ADW       0.098200
     87 H43         12.7930    -3.3830     8.0980 ho         1 ADW       0.485000
@<TRIPOS>BOND
     1     1     2 1   
     2     1    44 1   
     3     2     3 1   
     4     2    12 1   
     5     2    45 1   
     6     3     4 1   
     7     3    46 1   
     8     3    47 1   
     9     4     5 1   
    10     4    48 1   
    11     4    49 1   
    12     5     6 1   
    13     5    50 1   
    14     5    51 1   
    15     6     7 1   
    16     6     7 1   
    17     6    11 1   
    18     7     8 1   
    19     7    52 1   
    20     8     9 1   
    21     8     9 1   
    22     8    53 1   
    23     9    10 1   
    24     9    54 1   
    25    10    11 1   
    26    10    11 1   
    27    10    55 1   
    28    11    56 1   
    29    12    13 1   
    30    12    57 1   
    31    12    58 1   
    32    13    14 1   
    33    13    14 1   
    34    13    15 1   
    35    15    16 1   
    36    16    17 1   
    37    16    26 1   
    38    16    59 1   
    39    17    18 1   
    40    17    60 1   
    41    17    61 1   
    42    18    19 1   
    43    18    62 1   
    44    18    63 1   
    45    19    20 1   
    46    19    64 1   
    47    19    65 1   
    48    20    21 1   
    49    20    21 1   
    50    20    25 1   
    51    21    22 1   
    52    21    66 1   
    53    22    23 1   
    54    22    23 1   
    55    22    67 1   
    56    23    24 1   
    57    23    68 1   
    58    24    25 1   
    59    24    25 1   
    60    24    69 1   
    61    25    70 1   
    62    26    27 1   
    63    26    71 1   
    64    26    72 1   
    65    27    28 1   
    66    27    28 1   
    67    27    29 1   
    68    29    30 1   
    69    30    31 1   
    70    30    40 1   
    71    30    73 1   
    72    31    32 1   
    73    31    74 1   
    74    31    75 1   
    75    32    33 1   
    76    32    76 1   
    77    32    77 1   
    78    33    34 1   
    79    33    78 1   
    80    33    79 1   
    81    34    35 1   
    82    34    35 1   
    83    34    39 1   
    84    35    36 1   
    85    35    80 1   
    86    36    37 1   
    87    36    37 1   
    88    36    81 1   
    89    37    38 1   
    90    37    82 1   
    91    38    39 1   
    92    38    39 1   
    93    38    83 1   
    94    39    84 1   
    95    40    41 1   
    96    40    85 1   
    97    40    86 1   
    98    41    42 1   
    99    41    42 1   
   100    41    43 1   
   101    43    87 1   
@<TRIPOS>SUBSTRUCTURE
     1 ADW         1 TEMP              0 ****  ****    0 ROOT
