@<TRIPOS>MOLECULE
AMJ
   66    68     1     0     0
SMALL
abcg2


@<TRIPOS>ATOM
      1 O            1.0580     0.0060    -0.0630 oh         1 AMJ      -0.664000
      2 C            2.4770    -0.0110    -0.0780 c3         1 AMJ       0.155600
      3 C1           2.9920     1.0660     0.8630 c3         1 AMJ      -0.084400
      4 C2           4.5150     1.0880     0.8830 c3         1 AMJ      -0.078400
      5 C3           5.0360     2.1700     1.8290 c3         1 AMJ      -0.078400
      6 C4           6.5610     2.1810     1.8390 c3         1 AMJ      -0.079400
      7 C5           7.1370     3.2500     2.7730 c3         1 AMJ      -0.077400
      8 C6           8.6530     3.2090     2.7380 c3         1 AMJ       0.587000
      9 O1           9.3060     2.4290     2.0560 os         1 AMJ      -0.542000
     10 O2           9.1990     4.1520     3.5620 os         1 AMJ      -0.476000
     11 C7          10.6400     4.1430     3.5550 c3         1 AMJ       0.163600
     12 C8          11.1740     5.2210     4.4970 c3         1 AMJ      -0.085400
     13 C9          12.7040     5.2450     4.5180 c3         1 AMJ      -0.078400
     14 C10         13.2360     6.3270     5.4640 c3         1 AMJ      -0.078400
     15 C11         14.7640     6.3400     5.4760 c3         1 AMJ      -0.079400
     16 C12         15.3440     7.4100     6.4110 c3         1 AMJ      -0.077400
     17 C13         16.8600     7.3700     6.3760 c3         1 AMJ       0.587000
     18 O3          17.5140     6.5900     5.6940 os         1 AMJ      -0.541000
     19 O4          17.4070     8.3130     7.2010 os         1 AMJ      -0.477000
     20 C14         18.8490     8.3050     7.1930 c3         1 AMJ       0.163600
     21 C15         19.3820     9.3820     8.1360 c3         1 AMJ      -0.085400
     22 C16         20.9120     9.4060     8.1560 c3         1 AMJ      -0.078400
     23 C17         21.4400    10.4880     9.1030 c3         1 AMJ      -0.078400
     24 C18         22.9670    10.5030     9.1160 c3         1 AMJ      -0.075400
     25 C19         23.5370    11.5740    10.0520 c3         1 AMJ      -0.122400
     26 C20         25.0500    11.5360    10.0200 c3         1 AMJ       0.577000
     27 O5          25.7100    10.7600     9.3410 os         1 AMJ      -0.484000
     28 O6          25.6400    12.4510    10.8190 oh         1 AMJ      -0.628000
     29 H            0.7610    -0.6910    -0.6730 ho         1 AMJ       0.438000
     30 H1           2.8200     0.1730    -1.1010 h1         1 AMJ       0.020700
     31 H2           2.8200    -1.0000     0.2410 h1         1 AMJ       0.020700
     32 H3           2.6010     0.8900     1.8730 hc         1 AMJ       0.055700
     33 H4           2.6010     2.0430     0.5540 hc         1 AMJ       0.055700
     34 H5           4.8940     1.2690    -0.1310 hc         1 AMJ       0.042700
     35 H6           4.8940     0.1080     1.1970 hc         1 AMJ       0.042700
     36 H7           4.6580     1.9850     2.8420 hc         1 AMJ       0.042700
     37 H8           4.6580     3.1490     1.5110 hc         1 AMJ       0.042700
     38 H9           6.9280     2.3510     0.8180 hc         1 AMJ       0.057700
     39 H10          6.9280     1.1930     2.1430 hc         1 AMJ       0.057700
     40 H11          6.7960     3.0650     3.7980 hc         1 AMJ       0.078700
     41 H12          6.7960     4.2410     2.4540 hc         1 AMJ       0.078700
     42 H13         10.9980     4.3380     2.5360 h1         1 AMJ       0.052700
     43 H14         10.9980     3.1600     3.8840 h1         1 AMJ       0.052700
     44 H15         10.7880     5.0460     5.5090 hc         1 AMJ       0.053700
     45 H16         10.7880     6.2000     4.1890 hc         1 AMJ       0.053700
     46 H17         13.0850     5.4250     3.5040 hc         1 AMJ       0.046700
     47 H18         13.0850     4.2640     4.8320 hc         1 AMJ       0.046700
     48 H19         12.8610     6.1430     6.4780 hc         1 AMJ       0.041700
     49 H20         12.8610     7.3070     5.1470 hc         1 AMJ       0.041700
     50 H21         15.1330     6.5100     4.4560 hc         1 AMJ       0.059200
     51 H22         15.1330     5.3520     5.7800 hc         1 AMJ       0.059200
     52 H23         15.0030     7.2260     7.4360 hc         1 AMJ       0.078700
     53 H24         15.0030     8.4010     6.0920 hc         1 AMJ       0.078700
     54 H25         19.2070     8.5000     6.1750 h1         1 AMJ       0.053700
     55 H26         19.2070     7.3220     7.5230 h1         1 AMJ       0.053700
     56 H27         18.9970     9.2070     9.1470 hc         1 AMJ       0.053700
     57 H28         18.9970    10.3610     7.8270 hc         1 AMJ       0.053700
     58 H29         21.2940     9.5860     7.1430 hc         1 AMJ       0.047700
     59 H30         21.2940     8.4260     8.4710 hc         1 AMJ       0.047700
     60 H31         21.0660    10.3040    10.1160 hc         1 AMJ       0.040700
     61 H32         21.0660    11.4680     8.7860 hc         1 AMJ       0.040700
     62 H33         23.3380    10.6750     8.0980 hc         1 AMJ       0.062700
     63 H34         23.3380     9.5170     9.4220 hc         1 AMJ       0.062700
     64 H35         23.1970    11.3900    11.0770 hc         1 AMJ       0.069700
     65 H36         23.1970    12.5650     9.7330 hc         1 AMJ       0.069700
     66 H37         25.0340    13.0250    11.3220 ho         1 AMJ       0.461000
@<TRIPOS>BOND
     1     1     2 1   
     2     1    29 1   
     3     2     3 1   
     4     2    30 1   
     5     2    31 1   
     6     3     4 1   
     7     3    32 1   
     8     3    33 1   
     9     4     5 1   
    10     4    34 1   
    11     4    35 1   
    12     5     6 1   
    13     5    36 1   
    14     5    37 1   
    15     6     7 1   
    16     6    38 1   
    17     6    39 1   
    18     7     8 1   
    19     7    40 1   
    20     7    41 1   
    21     8     9 1   
    22     8     9 1   
    23     8    10 1   
    24    10    11 1   
    25    11    12 1   
    26    11    42 1   
    27    11    43 1   
    28    12    13 1   
    29    12    44 1   
    30    12    45 1   
    31    13    14 1   
    32    13    46 1   
    33    13    47 1   
    34    14    15 1   
    35    14    48 1   
    36    14    49 1   
    37    15    16 1   
    38    15    50 1   
    39    15    51 1   
    40    16    17 1   
    41    16    52 1   
    42    16    53 1   
    43    17    18 1   
    44    17    18 1   
    45    17    19 1   
    46    19    20 1   
    47    20    21 1   
    48    20    54 1   
    49    20    55 1   
    50    21    22 1   
    51    21    56 1   
    52    21    57 1   
    53    22    23 1   
    54    22    58 1   
    55    22    59 1   
    56    23    24 1   
    57    23    60 1   
    58    23    61 1   
    59    24    25 1   
    60    24    62 1   
    61    24    63 1   
    62    25    26 1   
    63    25    64 1   
    64    25    65 1   
    65    26    27 1   
    66    26    27 1   
    67    26    28 1   
    68    28    66 1   
@<TRIPOS>SUBSTRUCTURE
     1 AMJ         1 TEMP              0 ****  ****    0 ROOT
