@<TRIPOS>MOLECULE
AFK
   90   104     1     0     0
SMALL
abcg2


@<TRIPOS>ATOM
      1 O            8.0140     1.4160     3.9910 oh         1 AFK      -0.669000
      2 C            9.4310     1.3770     3.8070 c3         1 AFK       0.185300
      3 C1           9.9120     2.8340     3.6190 c3         1 AFK      -0.083400
      4 C2           9.9150     3.3690     2.1700 c3         1 AFK       0.157600
      5 O1          10.4340     4.6970     2.1440 os         1 AFK      -0.408000
      6 C3          10.5120     5.2530     0.8920 c3         1 AFK       0.174000
      7 C4           9.5100     5.1970    -0.0800 c3         1 AFK      -0.161700
      8 C5           9.6440     5.9310    -1.2670 c3         1 AFK      -0.056700
      9 C6          10.7800     6.7160    -1.4980 c3         1 AFK      -0.106000
     10 C7          10.9190     7.5260    -2.7540 c3         1 AFK      -0.055100
     11 C8          11.7900     6.7420    -0.5320 c3         1 AFK      -0.060700
     12 C9          11.6540     6.0160     0.6540 c3         1 AFK      -0.114700
     13 C10          9.8850     0.4710     2.6540 c3         1 AFK      -0.167400
     14 C11          9.1820    -0.8740     2.6630 c3         1 AFK       0.596000
     15 O2           8.4490    -1.2170     3.5870 os         1 AFK      -0.511000
     16 O3           9.2530    -1.6330     1.5390 os         1 AFK      -0.463000
     17 C12          9.9120    -1.2040     0.3270 c3         1 AFK       0.179300
     18 C13          9.0480    -0.1370    -0.4040 c3         1 AFK      -0.131400
     19 C14          7.7640     0.3230     0.3230 c3         1 AFK       0.147600
     20 O4           7.2090     1.4570    -0.3310 os         1 AFK      -0.403000
     21 C15          6.2370     2.0930     0.4000 c3         1 AFK       0.158000
     22 C16          6.3360     2.5040     1.7290 c3         1 AFK      -0.159700
     23 C17          5.3200     3.2170     2.3670 c3         1 AFK      -0.055700
     24 C18          4.1800     3.5580     1.6510 c3         1 AFK      -0.102000
     25 C19          3.0850     4.3530     2.2890 c3         1 AFK      -0.056100
     26 C20          4.0810     3.1570     0.3110 c3         1 AFK      -0.063700
     27 C21          5.1020     2.4310    -0.3050 c3         1 AFK      -0.113700
     28 C22         10.1080    -2.4320    -0.5880 c3         1 AFK      -0.143400
     29 C23         10.8940    -3.5490     0.0710 c3         1 AFK       0.598000
     30 O5          11.3730    -3.4400     1.1950 os         1 AFK      -0.507000
     31 O6          11.0440    -4.7130    -0.6200 os         1 AFK      -0.475000
     32 C24         10.6410    -4.9440    -2.0000 c3         1 AFK       0.173300
     33 C25          9.1030    -5.0090    -2.0420 c3         1 AFK      -0.113400
     34 C26          8.5280    -6.1050    -2.9230 c3         1 AFK       0.150600
     35 O7           7.1130    -6.0110    -2.8870 os         1 AFK      -0.426000
     36 C27          6.4690    -6.9820    -3.6030 c3         1 AFK       0.160000
     37 C28          6.8360    -8.3280    -3.6480 c3         1 AFK      -0.153700
     38 C29          6.0370    -9.2460    -4.3360 c3         1 AFK      -0.056700
     39 C30          4.8710    -8.8250    -4.9850 c3         1 AFK      -0.094000
     40 C31          3.9970    -9.8040    -5.7110 c3         1 AFK      -0.059100
     41 C32          4.5200    -7.4710    -4.9440 c3         1 AFK      -0.056700
     42 C33          5.3140    -6.5580    -4.2530 c3         1 AFK      -0.110700
     43 C34         11.2960    -6.2540    -2.4920 c3         1 AFK      -0.136400
     44 C35         12.8020    -6.1890    -2.5090 c3         1 AFK       0.581000
     45 O8          13.4570    -5.2220    -2.1880 os         1 AFK      -0.489000
     46 O9          13.3710    -7.3260    -2.9840 oh         1 AFK      -0.623000
     47 H            7.6630     0.5010     4.0390 ho         1 AFK       0.465000
     48 H1           9.8250     0.9700     4.7420 h1         1 AFK       0.052700
     49 H2           9.3000     3.5100     4.2320 hc         1 AFK       0.069200
     50 H3          10.9330     2.9020     4.0060 hc         1 AFK       0.069200
     51 H4           8.9050     3.3550     1.7660 h1         1 AFK       0.047200
     52 H5          10.5680     2.7570     1.5390 h1         1 AFK       0.047200
     53 H6           8.5940     4.6330     0.0700 hc         1 AFK       0.098700
     54 H7           8.8390     5.9070    -1.9990 hc         1 AFK       0.091700
     55 H8          10.0400     7.4230    -3.3980 hc         1 AFK       0.041700
     56 H9          11.7930     7.1920    -3.3220 hc         1 AFK       0.041700
     57 H10         11.0320     8.5890    -2.5120 hc         1 AFK       0.041700
     58 H11         12.6830     7.3450    -0.6830 hc         1 AFK       0.093700
     59 H12         12.4370     6.0530     1.4050 hc         1 AFK       0.107700
     60 H13         10.9670     0.3500     2.6470 hc         1 AFK       0.100700
     61 H14          9.6600     0.9940     1.7320 hc         1 AFK       0.100700
     62 H15         10.9060    -0.8130     0.5790 h1         1 AFK       0.078700
     63 H16          9.6980     0.7170    -0.6440 hc         1 AFK       0.071700
     64 H17          8.7410    -0.5070    -1.3900 hc         1 AFK       0.071700
     65 H18          7.9360     0.6160     1.3430 h1         1 AFK       0.067700
     66 H19          7.0480    -0.5020     0.3850 h1         1 AFK       0.067700
     67 H20          7.2230     2.3290     2.3020 hc         1 AFK       0.113700
     68 H21          5.4460     3.5180     3.4080 hc         1 AFK       0.097700
     69 H22          3.3210     4.6070     3.3280 hc         1 AFK       0.043033
     70 H23          2.1580     3.7730     2.2860 hc         1 AFK       0.043033
     71 H24          2.9360     5.2880     1.7410 hc         1 AFK       0.043033
     72 H25          3.2070     3.4190    -0.2740 hc         1 AFK       0.093700
     73 H26          5.0250     2.1270    -1.3420 hc         1 AFK       0.106700
     74 H27         10.6280    -2.1290    -1.5040 hc         1 AFK       0.107700
     75 H28          9.1100    -2.8010    -0.8200 hc         1 AFK       0.107700
     76 H29         11.0090    -4.1140    -2.6150 h1         1 AFK       0.079700
     77 H30          8.6950    -5.1150    -1.0270 hc         1 AFK       0.075700
     78 H31          8.7150    -4.0510    -2.4100 hc         1 AFK       0.075700
     79 H32          8.8560    -7.0680    -2.5280 h1         1 AFK       0.050200
     80 H33          8.8740    -5.9650    -3.9530 h1         1 AFK       0.050200
     81 H34          7.7090    -8.7070    -3.1280 hc         1 AFK       0.095700
     82 H35          6.3180   -10.2970    -4.3430 hc         1 AFK       0.095700
     83 H36          4.3890   -10.8240    -5.6330 hc         1 AFK       0.045367
     84 H37          3.9450    -9.5440    -6.7730 hc         1 AFK       0.045367
     85 H38          2.9880    -9.8010    -5.2870 hc         1 AFK       0.045367
     86 H39          3.6170    -7.1190    -5.4360 hc         1 AFK       0.101700
     87 H40          5.0320    -5.5100    -4.2140 hc         1 AFK       0.106700
     88 H41         10.9920    -6.4480    -3.5280 hc         1 AFK       0.094200
     89 H42         10.9950    -7.0930    -1.8550 hc         1 AFK       0.094200
     90 H43         12.7660    -8.0450    -3.2440 ho         1 AFK       0.486000
@<TRIPOS>BOND
     1     1     2 1   
     2     1    47 1   
     3     2     3 1   
     4     2    13 1   
     5     2    48 1   
     6     3     4 1   
     7     3    49 1   
     8     3    50 1   
     9     4     5 1   
    10     4    51 1   
    11     4    52 1   
    12     5     6 1   
    13     6     7 1   
    14     6     7 1   
    15     6    12 1   
    16     7     8 1   
    17     7    53 1   
    18     8     9 1   
    19     8     9 1   
    20     8    54 1   
    21     9    10 1   
    22     9    11 1   
    23    10    55 1   
    24    10    56 1   
    25    10    57 1   
    26    11    12 1   
    27    11    12 1   
    28    11    58 1   
    29    12    59 1   
    30    13    14 1   
    31    13    60 1   
    32    13    61 1   
    33    14    15 1   
    34    14    15 1   
    35    14    16 1   
    36    16    17 1   
    37    17    18 1   
    38    17    28 1   
    39    17    62 1   
    40    18    19 1   
    41    18    63 1   
    42    18    64 1   
    43    19    20 1   
    44    19    65 1   
    45    19    66 1   
    46    20    21 1   
    47    21    22 1   
    48    21    22 1   
    49    21    27 1   
    50    22    23 1   
    51    22    67 1   
    52    23    24 1   
    53    23    24 1   
    54    23    68 1   
    55    24    25 1   
    56    24    26 1   
    57    25    69 1   
    58    25    70 1   
    59    25    71 1   
    60    26    27 1   
    61    26    27 1   
    62    26    72 1   
    63    27    73 1   
    64    28    29 1   
    65    28    74 1   
    66    28    75 1   
    67    29    30 1   
    68    29    30 1   
    69    29    31 1   
    70    31    32 1   
    71    32    33 1   
    72    32    43 1   
    73    32    76 1   
    74    33    34 1   
    75    33    77 1   
    76    33    78 1   
    77    34    35 1   
    78    34    79 1   
    79    34    80 1   
    80    35    36 1   
    81    36    37 1   
    82    36    37 1   
    83    36    42 1   
    84    37    38 1   
    85    37    81 1   
    86    38    39 1   
    87    38    39 1   
    88    38    82 1   
    89    39    40 1   
    90    39    41 1   
    91    40    83 1   
    92    40    84 1   
    93    40    85 1   
    94    41    42 1   
    95    41    42 1   
    96    41    86 1   
    97    42    87 1   
    98    43    44 1   
    99    43    88 1   
   100    43    89 1   
   101    44    45 1   
   102    44    45 1   
   103    44    46 1   
   104    46    90 1   
@<TRIPOS>SUBSTRUCTURE
     1 AFK         1 TEMP              0 ****  ****    0 ROOT
