@<TRIPOS>MOLECULE
AFW
   99   113     1     0     0
SMALL
abcg2


@<TRIPOS>ATOM
      1 O           11.8720     4.5860    -2.0340 oh         1 AFW      -0.672000
      2 C           12.8110     3.5530    -1.7180 c3         1 AFW       0.181300
      3 C1          13.4840     3.1380    -3.0320 c3         1 AFW      -0.077400
      4 C2          14.8290     3.8490    -3.2070 c3         1 AFW      -0.080400
      5 C3          15.5060     3.4340    -4.5090 c3         1 AFW       0.151600
      6 O1          16.7880     4.0730    -4.5990 os         1 AFW      -0.407000
      7 C4          17.4510     3.7920    -5.7660 c3         1 AFW       0.181000
      8 C5          16.8340     3.8450    -7.0160 c3         1 AFW      -0.168700
      9 C6          17.5410     3.5230    -8.1800 c3         1 AFW      -0.035000
     10 C7          16.8420     3.5260    -9.5050 c3         1 AFW      -0.063100
     11 C8          18.8940     3.1850    -8.0850 c3         1 AFW      -0.127700
     12 C9          19.5300     3.1800    -6.8420 c3         1 AFW      -0.057700
     13 C10         18.8100     3.4910    -5.6840 c3         1 AFW      -0.122700
     14 C11         12.0860     2.3710    -1.0630 c3         1 AFW      -0.165400
     15 C12         11.4380     2.8090     0.2330 c3         1 AFW       0.597000
     16 O2          11.4460     3.9820     0.6010 os         1 AFW      -0.515000
     17 O3          10.7100     1.8880     0.9090 os         1 AFW      -0.457000
     18 C13         11.0370     0.4790     0.9120 c3         1 AFW       0.181300
     19 C14         10.1850    -0.2010    -0.1900 c3         1 AFW      -0.089400
     20 C15          8.9060    -0.8820     0.3080 c3         1 AFW      -0.088400
     21 C16          8.1040    -1.5120    -0.8150 c3         1 AFW       0.153600
     22 O4           6.9340    -2.0990    -0.2420 os         1 AFW      -0.404000
     23 C17          6.1570    -2.7570    -1.1520 c3         1 AFW       0.181000
     24 C18          6.6860    -3.6570    -2.0690 c3         1 AFW      -0.167700
     25 C19          5.8600    -4.2810    -3.0040 c3         1 AFW      -0.035000
     26 C20          6.4630    -5.1640    -4.0500 c3         1 AFW      -0.063100
     27 C21          4.4810    -4.0480    -2.9670 c3         1 AFW      -0.125700
     28 C22          3.9390    -3.1970    -2.0050 c3         1 AFW      -0.056700
     29 C23          4.7810    -2.5440    -1.1060 c3         1 AFW      -0.120700
     30 C24         10.7150    -0.0490     2.3150 c3         1 AFW      -0.146400
     31 C25         11.5060     0.5340     3.4500 c3         1 AFW       0.600000
     32 O5          12.3490     1.4080     3.2770 os         1 AFW      -0.513000
     33 O6          11.1260     0.1490     4.7050 os         1 AFW      -0.456000
     34 C26         10.6880    -1.1960     5.0740 c3         1 AFW       0.181300
     35 C27          9.1480    -1.2340     5.1270 c3         1 AFW      -0.096400
     36 C28          8.5510    -1.8750     3.8790 c3         1 AFW      -0.088400
     37 C29          7.0400    -1.8290     3.8540 c3         1 AFW       0.153600
     38 O7           6.6150    -2.4000     2.6150 os         1 AFW      -0.407000
     39 C30          5.2560    -2.3910     2.4690 c3         1 AFW       0.177000
     40 C31          4.4770    -1.2640     2.7280 c3         1 AFW      -0.165700
     41 C32          3.0870    -1.3180     2.6010 c3         1 AFW      -0.034000
     42 C33          2.2570    -0.1290     2.9740 c3         1 AFW      -0.064100
     43 C34          2.4880    -2.4990     2.1500 c3         1 AFW      -0.123700
     44 C35          3.2730    -3.6070     1.8250 c3         1 AFW      -0.056700
     45 C36          4.6590    -3.5510     1.9830 c3         1 AFW      -0.119700
     46 C37         11.2560    -1.5080     6.4810 c3         1 AFW      -0.149400
     47 C38         12.7640    -1.5480     6.4510 c3         1 AFW       0.589000
     48 O8          13.4400    -1.3920     5.4380 os         1 AFW      -0.511000
     49 O9          13.3390    -1.8310     7.6390 oh         1 AFW      -0.614000
     50 H           11.5140     4.9030    -1.1760 ho         1 AFW       0.463000
     51 H1          13.5470     3.9700    -1.0200 h1         1 AFW       0.051700
     52 H2          13.6590     2.0560    -3.0530 hc         1 AFW       0.058200
     53 H3          12.8330     3.3790    -3.8840 hc         1 AFW       0.058200
     54 H4          15.4900     3.6120    -2.3640 hc         1 AFW       0.063200
     55 H5          14.6910     4.9370    -3.1940 hc         1 AFW       0.063200
     56 H6          14.8460     3.7230    -5.3320 h1         1 AFW       0.040200
     57 H7          15.6470     2.3460    -4.5250 h1         1 AFW       0.040200
     58 H8          15.7970     4.1520    -7.1040 hc         1 AFW       0.096700
     59 H9          15.7940     3.8290    -9.4000 hc         1 AFW       0.045033
     60 H10         16.8540     2.5190    -9.9340 hc         1 AFW       0.045033
     61 H11         17.3250     4.2250   -10.1930 hc         1 AFW       0.045033
     62 H12         19.4590     2.9290    -8.9790 hc         1 AFW       0.091700
     63 H13         20.5850     2.9260    -6.7770 hc         1 AFW       0.092700
     64 H14         19.3110     3.4810    -4.7200 hc         1 AFW       0.108700
     65 H15         12.8110     1.5740    -0.8750 hc         1 AFW       0.098700
     66 H16         11.3010     2.0180    -1.7400 hc         1 AFW       0.098700
     67 H17         12.1050     0.3380     0.7140 h1         1 AFW       0.074700
     68 H18          9.8920     0.5320    -0.9490 hc         1 AFW       0.057200
     69 H19         10.8030    -0.9540    -0.6930 hc         1 AFW       0.057200
     70 H20          8.2710    -0.1740     0.8550 hc         1 AFW       0.068200
     71 H21          9.1660    -1.6930     0.9950 hc         1 AFW       0.068200
     72 H22          8.7450    -2.2620    -1.2880 h1         1 AFW       0.040200
     73 H23          7.8080    -0.7510    -1.5430 h1         1 AFW       0.040200
     74 H24          7.7460    -3.8840    -2.0650 hc         1 AFW       0.095700
     75 H25          7.5480    -5.2440    -3.9200 hc         1 AFW       0.045033
     76 H26          6.2780    -4.7400    -5.0410 hc         1 AFW       0.045033
     77 H27          6.0410    -6.1700    -3.9890 hc         1 AFW       0.045033
     78 H28          3.8230    -4.5260    -3.6890 hc         1 AFW       0.092700
     79 H29          2.8660    -3.0320    -1.9600 hc         1 AFW       0.093700
     80 H30          4.3570    -1.8730    -0.3640 hc         1 AFW       0.108700
     81 H31         10.8530    -1.1330     2.3160 hc         1 AFW       0.110700
     82 H32          9.6910     0.2730     2.5270 hc         1 AFW       0.110700
     83 H33         11.0870    -1.9320     4.3670 h1         1 AFW       0.079700
     84 H34          8.7980    -1.8220     5.9840 hc         1 AFW       0.065200
     85 H35          8.7560    -0.2160     5.2480 hc         1 AFW       0.065200
     86 H36          8.9290    -2.8920     3.7280 hc         1 AFW       0.059200
     87 H37          8.8530    -1.3360     3.0000 hc         1 AFW       0.059200
     88 H38          6.7410    -0.7780     3.9340 h1         1 AFW       0.042700
     89 H39          6.6320    -2.4090     4.6860 h1         1 AFW       0.042700
     90 H40          4.9430    -0.3270     3.0170 hc         1 AFW       0.096700
     91 H41          2.8870     0.7100     3.2910 hc         1 AFW       0.046367
     92 H42          1.6030    -0.3870     3.8120 hc         1 AFW       0.046367
     93 H43          1.6560     0.2040     2.1230 hc         1 AFW       0.046367
     94 H44          1.4080    -2.5580     2.0380 hc         1 AFW       0.094700
     95 H45          2.8090    -4.5080     1.4340 hc         1 AFW       0.094700
     96 H46          5.2750    -4.3980     1.6910 hc         1 AFW       0.108700
     97 H47         10.9030    -2.4940     6.8080 hc         1 AFW       0.094700
     98 H48         10.9310    -0.7520     7.2050 hc         1 AFW       0.094700
     99 H49         12.7390    -1.9680     8.3960 ho         1 AFW       0.468000
@<TRIPOS>BOND
     1     1     2 1   
     2     1    50 1   
     3     2     3 1   
     4     2    14 1   
     5     2    51 1   
     6     3     4 1   
     7     3    52 1   
     8     3    53 1   
     9     4     5 1   
    10     4    54 1   
    11     4    55 1   
    12     5     6 1   
    13     5    56 1   
    14     5    57 1   
    15     6     7 1   
    16     7     8 1   
    17     7     8 1   
    18     7    13 1   
    19     8     9 1   
    20     8    58 1   
    21     9    10 1   
    22     9    11 1   
    23     9    11 1   
    24    10    59 1   
    25    10    60 1   
    26    10    61 1   
    27    11    12 1   
    28    11    62 1   
    29    12    13 1   
    30    12    13 1   
    31    12    63 1   
    32    13    64 1   
    33    14    15 1   
    34    14    65 1   
    35    14    66 1   
    36    15    16 1   
    37    15    16 1   
    38    15    17 1   
    39    17    18 1   
    40    18    19 1   
    41    18    30 1   
    42    18    67 1   
    43    19    20 1   
    44    19    68 1   
    45    19    69 1   
    46    20    21 1   
    47    20    70 1   
    48    20    71 1   
    49    21    22 1   
    50    21    72 1   
    51    21    73 1   
    52    22    23 1   
    53    23    24 1   
    54    23    24 1   
    55    23    29 1   
    56    24    25 1   
    57    24    74 1   
    58    25    26 1   
    59    25    27 1   
    60    25    27 1   
    61    26    75 1   
    62    26    76 1   
    63    26    77 1   
    64    27    28 1   
    65    27    78 1   
    66    28    29 1   
    67    28    29 1   
    68    28    79 1   
    69    29    80 1   
    70    30    31 1   
    71    30    81 1   
    72    30    82 1   
    73    31    32 1   
    74    31    32 1   
    75    31    33 1   
    76    33    34 1   
    77    34    35 1   
    78    34    46 1   
    79    34    83 1   
    80    35    36 1   
    81    35    84 1   
    82    35    85 1   
    83    36    37 1   
    84    36    86 1   
    85    36    87 1   
    86    37    38 1   
    87    37    88 1   
    88    37    89 1   
    89    38    39 1   
    90    39    40 1   
    91    39    40 1   
    92    39    45 1   
    93    40    41 1   
    94    40    90 1   
    95    41    42 1   
    96    41    43 1   
    97    41    43 1   
    98    42    91 1   
    99    42    92 1   
   100    42    93 1   
   101    43    44 1   
   102    43    94 1   
   103    44    45 1   
   104    44    45 1   
   105    44    95 1   
   106    45    96 1   
   107    46    47 1   
   108    46    97 1   
   109    46    98 1   
   110    47    48 1   
   111    47    48 1   
   112    47    49 1   
   113    49    99 1   
@<TRIPOS>SUBSTRUCTURE
     1 AFW         1 TEMP              0 ****  ****    0 ROOT
