@<TRIPOS>MOLECULE
AJG
   39    44     1     0     0
SMALL
abcg2


@<TRIPOS>ATOM
      1 O            0.9940     0.0710    -0.0810 oh         1 AJG      -0.679000
      2 C            2.4180    -0.0050    -0.1320 c3         1 AJG       0.135300
      3 C1           2.9150    -1.2550    -0.8840 c3         1 AJG       0.595000
      4 O1           3.6070    -1.2130    -1.8960 os         1 AJG      -0.493000
      5 O2           2.5440    -2.4330    -0.3340 oh         1 AJG      -0.606000
      6 C2           2.9600     1.2740    -0.8120 c3         1 AJG      -0.124400
      7 C3           4.4700     1.3020    -0.7230 c3         1 AJG       0.615000
      8 O3           5.1140     0.5080    -0.0410 os         1 AJG      -0.578000
      9 O4           5.0610     2.2800    -1.4730 os         1 AJG      -0.450000
     10 C4           6.5170     2.2520    -1.4890 c3         1 AJG       0.133300
     11 C5           7.0910     1.0320    -2.2530 c3         1 AJG       0.573000
     12 O5           7.7560     1.1430    -3.2770 os         1 AJG      -0.475000
     13 O6           6.8540    -0.1790    -1.7120 oh         1 AJG      -0.670000
     14 C6           7.0820     3.5510    -2.1540 c3         1 AJG      -0.077400
     15 C7           8.6060     3.5820    -2.0660 c3         1 AJG       0.607000
     16 O7           9.2510     2.7950    -1.3770 os         1 AJG      -0.546000
     17 O8           9.2050     4.5590    -2.8160 os         1 AJG      -0.454000
     18 C8          10.6700     4.5290    -2.8370 c3         1 AJG       0.139300
     19 C9          11.2340     3.3100    -3.6110 c3         1 AJG       0.572000
     20 O9          11.8440     3.4110    -4.6710 os         1 AJG      -0.482000
     21 O10         11.0040     2.1010    -3.0590 oh         1 AJG      -0.669000
     22 C10         11.2340     5.8180    -3.5050 c3         1 AJG      -0.130400
     23 C11         12.7530     5.8440    -3.4350 c3         1 AJG       0.597000
     24 O11         13.4210     5.0400    -2.7920 os         1 AJG      -0.521000
     25 O12         13.3390     6.8790    -4.0740 oh         1 AJG      -0.612000
     26 H            0.6400    -0.7240     0.3500 ho         1 AJG       0.488000
     27 H1           2.7830    -0.0510     0.9020 h1         1 AJG       0.081700
     28 H2           2.0420    -2.4030     0.4990 ho         1 AJG       0.495000
     29 H3           2.5580     2.1620    -0.3130 hc         1 AJG       0.133200
     30 H4           2.6380     1.3000    -1.8600 hc         1 AJG       0.133200
     31 H5           6.8840     2.2300    -0.4530 h1         1 AJG       0.114700
     32 H6           6.2630    -0.1940    -0.9230 ho         1 AJG       0.550000
     33 H7           6.6850     4.4370    -1.6490 hc         1 AJG       0.121200
     34 H8           6.7690     3.5910    -3.2040 hc         1 AJG       0.121200
     35 H9          11.0410     4.5100    -1.8020 h1         1 AJG       0.116700
     36 H10         10.4310     2.1000    -2.2580 ho         1 AJG       0.551000
     37 H11         10.8550     6.7110    -2.9930 hc         1 AJG       0.110200
     38 H12         10.9120     5.8720    -4.5520 hc         1 AJG       0.110200
     39 H13         12.7550     7.4990    -4.5480 ho         1 AJG       0.475000
@<TRIPOS>BOND
     1     1     2 1   
     2     1    26 1   
     3     2     3 1   
     4     2     6 1   
     5     2    27 1   
     6     3     4 1   
     7     3     4 1   
     8     3     5 1   
     9     5    28 1   
    10     6     7 1   
    11     6    29 1   
    12     6    30 1   
    13     7     8 1   
    14     7     8 1   
    15     7     9 1   
    16     9    10 1   
    17    10    11 1   
    18    10    14 1   
    19    10    31 1   
    20    11    12 1   
    21    11    12 1   
    22    11    13 1   
    23    13    32 1   
    24    14    15 1   
    25    14    33 1   
    26    14    34 1   
    27    15    16 1   
    28    15    16 1   
    29    15    17 1   
    30    17    18 1   
    31    18    19 1   
    32    18    22 1   
    33    18    35 1   
    34    19    20 1   
    35    19    20 1   
    36    19    21 1   
    37    21    36 1   
    38    22    23 1   
    39    22    37 1   
    40    22    38 1   
    41    23    24 1   
    42    23    24 1   
    43    23    25 1   
    44    25    39 1   
@<TRIPOS>SUBSTRUCTURE
     1 AJG         1 TEMP              0 ****  ****    0 ROOT
