@<TRIPOS>MOLECULE
AHS
   72    86     1     0     0
SMALL
abcg2


@<TRIPOS>ATOM
      1 O            0.9560    -0.1290     0.1090 oh         1 AHS      -0.658000
      2 C            2.3900    -0.0830     0.1000 c3         1 AHS       0.188300
      3 C1           2.8650     1.3130     0.5650 c3         1 AHS      -0.041400
      4 S            2.2240     2.6020    -0.5900 ss         1 AHS      -0.233000
      5 C2           2.7380     4.1630     0.1190 c3         1 AHS      -0.015000
      6 C3           2.2080     5.3310    -0.4530 c3         1 AHS      -0.054700
      7 C4           2.5780     6.6020     0.0070 c3         1 AHS      -0.110700
      8 C5           3.4900     6.7140     1.0410 c3         1 AHS       0.176000
      9 F            3.8830     7.9220     1.4660 f          1 AHS      -0.193000
     10 C6           3.9950     5.5780     1.6470 c3         1 AHS      -0.110700
     11 C7           3.6230     4.3060     1.1860 c3         1 AHS      -0.074700
     12 C8           2.9090    -1.2360     0.9880 c3         1 AHS      -0.079400
     13 C9           4.3890    -1.4210     0.7860 c3         1 AHS       0.590000
     14 O1           4.9340    -1.0690    -0.2560 os         1 AHS      -0.524000
     15 O2           5.0260    -2.0270     1.8410 os         1 AHS      -0.470000
     16 C10          6.4980    -2.0850     1.7760 c3         1 AHS       0.197300
     17 C11          7.0830    -0.7310     2.2730 c3         1 AHS      -0.010400
     18 S1           6.8480     0.5920     1.0250 ss         1 AHS      -0.213000
     19 C12          7.1180     2.1320     1.8330 c3         1 AHS      -0.018000
     20 C13          6.6480     3.2720     1.1760 c3         1 AHS      -0.056700
     21 C14          6.9780     4.5480     1.6310 c3         1 AHS      -0.108700
     22 C15          7.7620     4.6880     2.7590 c3         1 AHS       0.173000
     23 F1           8.0990     5.9090     3.1880 f          1 AHS      -0.193000
     24 C16          8.2070     3.5700     3.4390 c3         1 AHS      -0.110700
     25 C17          7.8750     2.2910     2.9830 c3         1 AHS      -0.077700
     26 C18          7.0310    -3.2710     2.6550 c3         1 AHS      -0.105400
     27 C19          8.5270    -3.4710     2.4560 c3         1 AHS       0.604000
     28 O3           9.0710    -3.1240     1.4080 os         1 AHS      -0.548000
     29 O4           9.1860    -4.0770     3.5030 os         1 AHS      -0.468000
     30 C20         10.6740    -4.1150     3.4400 c3         1 AHS       0.192300
     31 C21         11.2370    -2.7600     3.9550 c3         1 AHS       0.000600
     32 S2          11.0050    -1.4640     2.7010 ss         1 AHS      -0.217000
     33 C22         11.3900     0.0560     3.4910 c3         1 AHS      -0.017000
     34 C23         10.8490     1.1950     2.8910 c3         1 AHS      -0.056700
     35 C24         11.1780     2.4650     3.3530 c3         1 AHS      -0.107700
     36 C25         12.0270     2.5940     4.4350 c3         1 AHS       0.174000
     37 F2          12.3100     3.8150     4.9030 f          1 AHS      -0.193000
     38 C26         12.5980     1.4740     5.0230 c3         1 AHS      -0.108700
     39 C27         12.2800     0.1990     4.5500 c3         1 AHS      -0.078700
     40 C28         11.2340    -5.2780     4.3160 c3         1 AHS      -0.153400
     41 C29         12.7580    -5.3470     4.2690 c3         1 AHS       0.584000
     42 O5          13.4630    -4.6450     3.5600 os         1 AHS      -0.488000
     43 O6          13.3140    -6.2570     5.0970 oh         1 AHS      -0.622000
     44 H            0.6650     0.6010    -0.4740 ho         1 AHS       0.460000
     45 H1           2.7030    -0.2550    -0.9380 h1         1 AHS       0.071700
     46 H2           3.9540     1.3670     0.5730 h1         1 AHS       0.085700
     47 H3           2.4810     1.5230     1.5690 h1         1 AHS       0.085700
     48 H4           1.4860     5.2610    -1.2630 hc         1 AHS       0.109700
     49 H5           2.1530     7.4980    -0.4300 hc         1 AHS       0.113700
     50 H6           4.7010     5.6920     2.4640 hc         1 AHS       0.112700
     51 H7           4.0630     3.4400     1.6660 hc         1 AHS       0.098700
     52 H8           2.4310    -2.1740     0.6840 hc         1 AHS       0.098700
     53 H9           2.6520    -1.0550     2.0370 hc         1 AHS       0.098700
     54 H10          6.7980    -2.2830     0.7380 h1         1 AHS       0.104700
     55 H11          8.1600    -0.8030     2.4110 h1         1 AHS       0.090700
     56 H12          6.6210    -0.4590     3.2280 h1         1 AHS       0.090700
     57 H13          6.0120     3.1710     0.2970 hc         1 AHS       0.110700
     58 H14          6.6170     5.4320     1.1170 hc         1 AHS       0.114700
     59 H15          8.8780     3.6980     4.2820 hc         1 AHS       0.111700
     60 H16          8.2930     1.4260     3.4840 hc         1 AHS       0.097700
     61 H17          6.5490    -4.2050     2.3430 hc         1 AHS       0.100700
     62 H18          6.7830    -3.1030     3.7090 hc         1 AHS       0.100700
     63 H19         10.9840    -4.3150     2.4050 h1         1 AHS       0.090700
     64 H20         12.3130    -2.7930     4.1150 h1         1 AHS       0.091200
     65 H21         10.7620    -2.5020     4.9080 h1         1 AHS       0.091200
     66 H22         10.1670     1.0960     2.0460 hc         1 AHS       0.111700
     67 H23         10.7720     3.3490     2.8730 hc         1 AHS       0.114700
     68 H24         13.3200     1.6000     5.8200 hc         1 AHS       0.111700
     69 H25         12.7770    -0.6640     4.9770 hc         1 AHS       0.095700
     70 H26         10.8430    -6.2380     3.9600 hc         1 AHS       0.091700
     71 H27         10.9100    -5.1520     5.3550 hc         1 AHS       0.091700
     72 H28         12.7110    -6.8300     5.6040 ho         1 AHS       0.490000
@<TRIPOS>BOND
     1     1     2 1   
     2     1    44 1   
     3     2     3 1   
     4     2    12 1   
     5     2    45 1   
     6     3     4 1   
     7     3    46 1   
     8     3    47 1   
     9     4     5 1   
    10     5     6 1   
    11     5     6 1   
    12     5    11 1   
    13     6     7 1   
    14     6    48 1   
    15     7     8 1   
    16     7     8 1   
    17     7    49 1   
    18     8     9 1   
    19     8    10 1   
    20    10    11 1   
    21    10    11 1   
    22    10    50 1   
    23    11    51 1   
    24    12    13 1   
    25    12    52 1   
    26    12    53 1   
    27    13    14 1   
    28    13    14 1   
    29    13    15 1   
    30    15    16 1   
    31    16    17 1   
    32    16    26 1   
    33    16    54 1   
    34    17    18 1   
    35    17    55 1   
    36    17    56 1   
    37    18    19 1   
    38    19    20 1   
    39    19    20 1   
    40    19    25 1   
    41    20    21 1   
    42    20    57 1   
    43    21    22 1   
    44    21    22 1   
    45    21    58 1   
    46    22    23 1   
    47    22    24 1   
    48    24    25 1   
    49    24    25 1   
    50    24    59 1   
    51    25    60 1   
    52    26    27 1   
    53    26    61 1   
    54    26    62 1   
    55    27    28 1   
    56    27    28 1   
    57    27    29 1   
    58    29    30 1   
    59    30    31 1   
    60    30    40 1   
    61    30    63 1   
    62    31    32 1   
    63    31    64 1   
    64    31    65 1   
    65    32    33 1   
    66    33    34 1   
    67    33    34 1   
    68    33    39 1   
    69    34    35 1   
    70    34    66 1   
    71    35    36 1   
    72    35    36 1   
    73    35    67 1   
    74    36    37 1   
    75    36    38 1   
    76    38    39 1   
    77    38    39 1   
    78    38    68 1   
    79    39    69 1   
    80    40    41 1   
    81    40    70 1   
    82    40    71 1   
    83    41    42 1   
    84    41    42 1   
    85    41    43 1   
    86    43    72 1   
@<TRIPOS>SUBSTRUCTURE
     1 AHS         1 TEMP              0 ****  ****    0 ROOT
