@<TRIPOS>MOLECULE
AAM
   39    41     1     0     0
SMALL
abcg2


@<TRIPOS>ATOM
      1 O            8.7180     1.8550    -0.2940 oh         1 AAM      -0.723000
      2 C            9.9190     1.4230    -0.8920 c3         1 AAM       0.140300
      3 C1          10.8870     2.5890    -0.9630 c3         1 AAM      -0.108400
      4 C2          10.1110     3.8780    -1.0040 c3         1 AAM      -0.098100
      5 C3           9.7590     0.3430    -1.9970 c3         1 AAM       0.549000
      6 O1          10.3640     0.4400    -3.0630 os         1 AAM      -0.459000
      7 O2           8.9450    -0.7570    -1.7770 os         1 AAM      -0.443000
      8 C4           8.2580    -1.4290    -0.6240 c3         1 AAM       0.140300
      9 C5           8.3330    -0.6360     0.6720 c3         1 AAM      -0.090400
     10 C6           9.8280    -0.5960     1.0100 c3         1 AAM      -0.102100
     11 C7           8.7530    -2.8520    -0.1450 c3         1 AAM       0.603000
     12 O3           8.8640    -3.1480     1.0460 os         1 AAM      -0.461000
     13 O4           9.1070    -3.7880    -1.0360 os         1 AAM      -0.471000
     14 C8           8.5300    -3.8490    -2.3440 c3         1 AAM       0.128300
     15 C9           6.9840    -3.8410    -2.2430 c3         1 AAM      -0.095400
     16 C10          6.3250    -5.0680    -2.8200 c3         1 AAM      -0.100100
     17 C11          9.2030    -5.0940    -3.0150 c3         1 AAM       0.590000
     18 O5           8.6520    -6.0030    -3.5740 os         1 AAM      -0.498000
     19 O6          10.5640    -5.0790    -2.9640 oh         1 AAM      -0.669000
     20 H            7.9820     1.5680    -0.8620 ho         1 AAM       0.524000
     21 H1          10.5500     0.9420    -0.1760 h1         1 AAM       0.095700
     22 H2          11.4700     2.6170    -0.0180 hc         1 AAM       0.070200
     23 H3          11.6180     2.4520    -1.7590 hc         1 AAM       0.070200
     24 H4           9.5620     4.0200    -0.0610 hc         1 AAM       0.044367
     25 H5           9.3840     3.8230    -1.8180 hc         1 AAM       0.044367
     26 H6          10.7810     4.7220    -1.1270 hc         1 AAM       0.044367
     27 H7           7.2070    -1.5170    -0.9280 h1         1 AAM       0.090700
     28 H8           7.7580     0.2750     0.5200 hc         1 AAM       0.055200
     29 H9           7.8030    -1.0530     1.5330 hc         1 AAM       0.055200
     30 H10         10.4160    -0.7320     0.0880 hc         1 AAM       0.052367
     31 H11         10.2310    -1.4550     1.5310 hc         1 AAM       0.052367
     32 H12         10.1070     0.2940     1.5720 hc         1 AAM       0.052367
     33 H13          8.8760    -2.9670    -2.8870 h1         1 AAM       0.092700
     34 H14          6.6280    -3.7330    -1.2080 hc         1 AAM       0.064200
     35 H15          6.6050    -2.9570    -2.7750 hc         1 AAM       0.064200
     36 H16          6.6820    -5.9510    -2.2800 hc         1 AAM       0.047033
     37 H17          6.5670    -5.1320    -3.8850 hc         1 AAM       0.047033
     38 H18          5.2390    -5.0500    -2.7370 hc         1 AAM       0.047033
     39 H19         10.9630    -4.3450    -2.4700 ho         1 AAM       0.553000
@<TRIPOS>BOND
     1     1     2 1   
     2     1    20 1   
     3     2     3 1   
     4     2     5 1   
     5     2    21 1   
     6     3     4 1   
     7     3    22 1   
     8     3    23 1   
     9     4    24 1   
    10     4    25 1   
    11     4    26 1   
    12     5     6 1   
    13     5     6 1   
    14     5     7 1   
    15     7     8 1   
    16     8     9 1   
    17     8    11 1   
    18     8    27 1   
    19     9    10 1   
    20     9    28 1   
    21     9    29 1   
    22    10    30 1   
    23    10    31 1   
    24    10    32 1   
    25    11    12 1   
    26    11    12 1   
    27    11    13 1   
    28    13    14 1   
    29    14    15 1   
    30    14    17 1   
    31    14    33 1   
    32    15    16 1   
    33    15    34 1   
    34    15    35 1   
    35    16    36 1   
    36    16    37 1   
    37    16    38 1   
    38    17    18 1   
    39    17    18 1   
    40    17    19 1   
    41    19    39 1   
@<TRIPOS>SUBSTRUCTURE
     1 AAM         1 TEMP              0 ****  ****    0 ROOT
