@<TRIPOS>MOLECULE
AGQ
   87   104     1     0     0
SMALL
abcg2


@<TRIPOS>ATOM
      1 O           10.3300     2.8130    -2.6510 oh         1 AGQ      -0.317000
      2 C           11.5590     2.1780    -2.8060 c3         1 AGQ       0.046000
      3 C1          11.2360     1.2410    -3.9290 c3         1 AGQ      -0.194000
      4 C2          12.4440     1.0350    -4.6940 c3         1 AGQ      -0.147000
      5 O1          12.9580    -0.4850    -6.0310 os         1 AGQ      -0.121000
      6 C3          14.0780    -0.3610    -7.4490 c3         1 AGQ       0.110000
      7 C4          13.5200    -0.0310    -8.7600 c3         1 AGQ      -0.189000
      8 C5          14.3260     0.7100    -9.7390 c3         1 AGQ      -0.032000
      9 C6          15.6440     1.1710    -9.4650 c3         1 AGQ      -0.156000
     10 N           16.4830     1.8270   -10.4610 n4         1 AGQ       0.572000
     11 O2          16.0070     1.9860   -11.5890 os         1 AGQ      -0.358000
     12 O3          17.6450     2.1240   -10.1330 o          1 AGQ      -0.358000
     13 C7          16.1950     0.9980    -8.2280 c3         1 AGQ      -0.041000
     14 C8          15.4420     0.2990    -7.2880 c3         1 AGQ      -0.150000
     15 C9          11.7950     1.2580    -1.6770 c3         1 AGQ      -0.234000
     16 C10         11.7950     1.7000    -0.2770 c3         1 AGQ       0.315000
     17 O4          11.7020     2.9100    -0.0920 os         1 AGQ      -0.324000
     18 O5          11.7780     0.7790     0.7320 os         1 AGQ      -0.281000
     19 C11         11.9360    -0.7280     0.9150 c3         1 AGQ       0.048000
     20 C12         11.3130    -1.6650    -0.2050 c3         1 AGQ      -0.228000
     21 C13         12.0870    -1.4010    -1.4720 c3         1 AGQ      -0.022000
     22 O6          11.5660    -1.7040    -2.7940 os         1 AGQ      -0.207000
     23 C14         12.1820    -1.3030    -4.0780 c3         1 AGQ       0.133000
     24 C15         11.0020    -0.8260    -5.2540 c3         1 AGQ      -0.244000
     25 C16         11.2880     0.4070    -6.4890 c3         1 AGQ       0.016000
     26 C17         12.8940     1.2740    -6.5930 c3         1 AGQ      -0.080000
     27 N1          12.9300     2.3530    -7.5160 n4         1 AGQ       0.548000
     28 O7          11.9140     2.5110    -8.2160 os         1 AGQ      -0.363000
     29 O8          13.9780     2.9890    -7.5900 o          1 AGQ      -0.331000
     30 C18         14.2300     0.6650    -5.3360 c3         1 AGQ      -0.107000
     31 C19         13.7400    -0.6490    -4.1500 c3         1 AGQ      -0.194000
     32 C20         11.1890    -1.1260     2.1740 c3         1 AGQ      -0.207000
     33 C21         11.7570    -0.5550     3.4500 c3         1 AGQ       0.310000
     34 O9          12.6820     0.2460     3.4570 os         1 AGQ      -0.302000
     35 O10         11.1020    -0.9020     4.6000 os         1 AGQ      -0.260000
     36 C22         10.6370    -2.2600     4.7930 c3         1 AGQ       0.044000
     37 C23          9.1020    -2.2550     4.7990 c3         1 AGQ      -0.185000
     38 C24          8.5260    -1.9470     3.4190 c3         1 AGQ      -0.027000
     39 O11          7.1040    -1.9620     3.4320 os         1 AGQ      -0.205000
     40 C25          6.5390    -1.6330     2.2230 c3         1 AGQ       0.117000
     41 C26          5.4870    -0.7180     2.2590 c3         1 AGQ      -0.172000
     42 C27          4.7100    -0.4810     1.1170 c3         1 AGQ      -0.040000
     43 C28          5.0750    -1.0570    -0.1030 c3         1 AGQ      -0.173000
     44 N2           4.4000    -0.6350    -1.3430 n4         1 AGQ       0.573000
     45 O12          3.5020     0.2140    -1.2500 os         1 AGQ      -0.367000
     46 O13          4.7940    -1.1270    -2.4100 o          1 AGQ      -0.361000
     47 C29          6.1330    -1.9710    -0.1510 c3         1 AGQ      -0.019000
     48 C30          6.8560    -2.2630     1.0170 c3         1 AGQ      -0.213000
     49 C31         11.1980    -2.8340     6.1120 c3         1 AGQ      -0.221000
     50 C32         12.7130    -2.8490     6.0660 c3         1 AGQ       0.304000
     51 O14         13.3640    -2.4750     5.1010 os         1 AGQ      -0.321000
     52 O15         13.3270    -3.3670     7.1490 oh         1 AGQ      -0.275000
     53 H           10.3170     3.0830    -1.7230 ho         1 AGQ       0.226000
     54 H1          12.4520     2.8110    -2.8820 h1         1 AGQ       0.124000
     55 H2          11.0640     0.3160    -3.4650 hc         1 AGQ       0.099500
     56 H3          10.3710     1.4910    -4.5300 hc         1 AGQ       0.099500
     57 H4          13.3060     1.3760    -3.9900 h1         1 AGQ       0.103000
     58 H5          12.4690     2.1270    -5.1110 h1         1 AGQ       0.103000
     59 H6          12.4450     0.0330    -8.9850 hc         1 AGQ       0.157000
     60 H7          13.8780     1.0180   -10.6910 hc         1 AGQ       0.176000
     61 H8          17.1370     1.4550    -7.8950 hc         1 AGQ       0.177000
     62 H9          15.9230     0.6920    -6.3920 hc         1 AGQ       0.166000
     63 H10         12.7640     0.7700    -1.8960 hc         1 AGQ       0.130500
     64 H11         10.8320     0.7000    -1.7710 hc         1 AGQ       0.130500
     65 H12         13.0030    -0.9260     1.0500 h1         1 AGQ       0.123000
     66 H13         11.4190    -2.7270    -0.0460 hc         1 AGQ       0.112000
     67 H14         10.2330    -1.3950    -0.2950 hc         1 AGQ       0.112000
     68 H15         13.1490    -1.1610    -1.3430 h1         1 AGQ       0.108500
     69 H16         11.6400    -0.5070    -1.2290 h1         1 AGQ       0.108500
     70 H17          9.9570    -0.7980    -4.8390 hc         1 AGQ       0.169000
     71 H18         10.5400     0.4170    -7.2810 hc         1 AGQ       0.178000
     72 H19         15.1440     1.0590    -4.9590 hc         1 AGQ       0.133000
     73 H20         14.2630    -0.6170    -3.1990 hc         1 AGQ       0.150000
     74 H21         11.1900    -2.2190     2.2120 hc         1 AGQ       0.142000
     75 H22         10.1830    -0.7510     2.0160 hc         1 AGQ       0.142000
     76 H23         11.0070    -2.9090     3.9970 h1         1 AGQ       0.116000
     77 H24          8.7230    -3.2260     5.1300 hc         1 AGQ       0.117000
     78 H25          8.7320    -1.4980     5.5000 hc         1 AGQ       0.117000
     79 H26          8.9240    -2.6810     2.7060 h1         1 AGQ       0.090500
     80 H27          8.8100    -0.9290     3.1660 h1         1 AGQ       0.090500
     81 H28          5.2770    -0.1750     3.1770 hc         1 AGQ       0.161000
     82 H29          3.8230     0.1410     1.1970 hc         1 AGQ       0.172000
     83 H30          6.3880    -2.4780    -1.0800 hc         1 AGQ       0.186000
     84 H31          7.6510    -2.9980     0.9620 hc         1 AGQ       0.169000
     85 H32         10.8440    -3.8690     6.2110 hc         1 AGQ       0.135500
     86 H33         10.8520    -2.2450     6.9660 hc         1 AGQ       0.135500
     87 H34         12.7850    -3.6880     7.8920 ho         1 AGQ       0.230000
@<TRIPOS>BOND
     1     1     2 1   
     2     1    53 1   
     3     2     3 1   
     4     2    15 1   
     5     2    54 1   
     6     3     4 1   
     7     3    55 1   
     8     3    56 1   
     9     4     5 1   
    10     4    57 1   
    11     4    58 1   
    12     5     6 1   
    13     6     7 1   
    14     6     7 1   
    15     6    14 1   
    16     7     8 1   
    17     7    59 1   
    18     8     9 1   
    19     8     9 1   
    20     8    60 1   
    21     9    10 1   
    22     9    13 1   
    23    10    11 1   
    24    10    11 1   
    25    10    12 1   
    26    13    14 1   
    27    13    14 1   
    28    13    61 1   
    29    14    62 1   
    30    15    16 1   
    31    15    63 1   
    32    15    64 1   
    33    16    17 1   
    34    16    17 1   
    35    16    18 1   
    36    18    19 1   
    37    19    20 1   
    38    19    32 1   
    39    19    65 1   
    40    20    21 1   
    41    20    66 1   
    42    20    67 1   
    43    21    22 1   
    44    21    68 1   
    45    21    69 1   
    46    22    23 1   
    47    23    24 1   
    48    23    24 1   
    49    23    31 1   
    50    24    25 1   
    51    24    70 1   
    52    25    26 1   
    53    25    26 1   
    54    25    71 1   
    55    26    27 1   
    56    26    30 1   
    57    27    28 1   
    58    27    28 1   
    59    27    29 1   
    60    30    31 1   
    61    30    31 1   
    62    30    72 1   
    63    31    73 1   
    64    32    33 1   
    65    32    74 1   
    66    32    75 1   
    67    33    34 1   
    68    33    34 1   
    69    33    35 1   
    70    35    36 1   
    71    36    37 1   
    72    36    49 1   
    73    36    76 1   
    74    37    38 1   
    75    37    77 1   
    76    37    78 1   
    77    38    39 1   
    78    38    79 1   
    79    38    80 1   
    80    39    40 1   
    81    40    41 1   
    82    40    41 1   
    83    40    48 1   
    84    41    42 1   
    85    41    81 1   
    86    42    43 1   
    87    42    43 1   
    88    42    82 1   
    89    43    44 1   
    90    43    47 1   
    91    44    45 1   
    92    44    45 1   
    93    44    46 1   
    94    47    48 1   
    95    47    48 1   
    96    47    83 1   
    97    48    84 1   
    98    49    50 1   
    99    49    85 1   
   100    49    86 1   
   101    50    51 1   
   102    50    51 1   
   103    50    52 1   
   104    52    87 1   
@<TRIPOS>SUBSTRUCTURE
     1 AGQ         1 TEMP              0 ****  ****    0 ROOT
