@<TRIPOS>MOLECULE
ACE
  147   149     1     0     0
SMALL
abcg2


@<TRIPOS>ATOM
      1 O           13.7590     2.3460    -3.4870 oh         1 ACE      -0.670000
      2 C           13.7870     3.1150    -2.2900 c3         1 ACE       0.183300
      3 C1          15.1670     3.7650    -2.1550 c3         1 ACE      -0.080400
      4 C2          15.3110     4.3570    -0.7620 c3         1 ACE      -0.085400
      5 C3          16.3590     5.4280    -0.6660 c3         1 ACE      -0.076400
      6 C4          16.3830     5.9270     0.7700 c3         1 ACE      -0.080400
      7 C5          17.4160     7.0210     0.8950 c3         1 ACE      -0.078400
      8 C6          17.4600     7.5310     2.3200 c3         1 ACE      -0.078400
      9 C7          18.5030     8.6250     2.4270 c3         1 ACE      -0.079400
     10 C8          18.5590     9.1430     3.8510 c3         1 ACE      -0.078400
     11 C9          19.6040    10.2380     3.9590 c3         1 ACE      -0.079400
     12 C10         19.6610    10.7590     5.3850 c3         1 ACE      -0.079400
     13 C11         20.7060    11.8560     5.4980 c3         1 ACE      -0.079400
     14 C12         20.7710    12.3840     6.9230 c3         1 ACE      -0.080400
     15 C13         21.8150    13.4780     7.0330 c3         1 ACE      -0.092100
     16 C14         13.4880     2.2120    -1.0970 c3         1 ACE      -0.167400
     17 C15         12.0890     1.6620    -1.1420 c3         1 ACE       0.595000
     18 O1          11.3400     1.8540    -2.0970 os         1 ACE      -0.518000
     19 O2          11.6970     0.8820    -0.1020 os         1 ACE      -0.459000
     20 C16         12.4880     0.7150     1.0900 c3         1 ACE       0.180300
     21 C17         12.6390    -0.7950     1.3190 c3         1 ACE      -0.093400
     22 C18         13.2320    -1.0200     2.6980 c3         1 ACE      -0.086400
     23 C19         13.9210    -2.3450     2.8540 c3         1 ACE      -0.076400
     24 C20         14.4720    -2.4120     4.2690 c3         1 ACE      -0.080400
     25 C21         15.1900    -3.7260     4.4580 c3         1 ACE      -0.078400
     26 C22         15.7420    -3.8150     5.8650 c3         1 ACE      -0.079400
     27 C23         16.4560    -5.1410     6.0390 c3         1 ACE      -0.079400
     28 C24         17.0110    -5.2440     7.4460 c3         1 ACE      -0.079400
     29 C25         17.7260    -6.5710     7.6210 c3         1 ACE      -0.079400
     30 C26         18.2830    -6.6770     9.0290 c3         1 ACE      -0.079400
     31 C27         19.0000    -8.0050     9.2080 c3         1 ACE      -0.079400
     32 C28         19.5620    -8.1200    10.6170 c3         1 ACE      -0.080400
     33 C29         20.2760    -9.4450    10.7940 c3         1 ACE      -0.092100
     34 C30         11.8080     1.3980     2.2820 c3         1 ACE      -0.148400
     35 C31         11.6910     2.8920     2.1480 c3         1 ACE       0.599000
     36 O3          11.9970     3.5120     1.1310 os         1 ACE      -0.516000
     37 O4          11.2130     3.5800     3.2100 os         1 ACE      -0.455000
     38 C32         10.7130     2.9580     4.4130 c3         1 ACE       0.177300
     39 C33          9.1800     2.9750     4.3750 c3         1 ACE      -0.093400
     40 C34          8.6260     3.0460     2.9550 c3         1 ACE      -0.083400
     41 C35          7.1150     3.0480     2.9510 c3         1 ACE      -0.076400
     42 C36          6.6200     3.1410     1.5180 c3         1 ACE      -0.080400
     43 C37          5.1060     3.1440     1.5050 c3         1 ACE      -0.078400
     44 C38          4.6010     3.2340     0.0790 c3         1 ACE      -0.079400
     45 C39          3.0840     3.2350     0.0730 c3         1 ACE      -0.078400
     46 C40          2.5740     3.3240    -1.3520 c3         1 ACE      -0.079400
     47 C41          1.0560     3.3250    -1.3590 c3         1 ACE      -0.078400
     48 C42          0.5440     3.4150    -2.7860 c3         1 ACE      -0.079400
     49 C43         -0.9760     3.4150    -2.7960 c3         1 ACE      -0.079400
     50 C44         -1.4980     3.5050    -4.2220 c3         1 ACE      -0.080400
     51 C45         -3.0140     3.5050    -4.2290 c3         1 ACE      -0.092100
     52 C46         11.2690     3.7590     5.5930 c3         1 ACE      -0.148400
     53 C47         12.7820     3.7100     5.5740 c3         1 ACE       0.588000
     54 O5          13.4500     3.0890     4.7570 os         1 ACE      -0.511000
     55 O6          13.3650     4.3980     6.5770 oh         1 ACE      -0.615000
     56 H           12.8390     2.0130    -3.5570 ho         1 ACE       0.461000
     57 H1          13.0350     3.9110    -2.3750 h1         1 ACE       0.048700
     58 H2          15.9610     3.0290    -2.3360 hc         1 ACE       0.056200
     59 H3          15.2890     4.5310    -2.9300 hc         1 ACE       0.056200
     60 H4          15.5640     3.5560    -0.0540 hc         1 ACE       0.046700
     61 H5          14.3550     4.7940    -0.4440 hc         1 ACE       0.046700
     62 H6          16.1100     6.2510    -1.3450 hc         1 ACE       0.039700
     63 H7          17.3370     5.0300    -0.9530 hc         1 ACE       0.039700
     64 H8          16.6170     5.1020     1.4570 hc         1 ACE       0.041700
     65 H9          15.3940     6.3070     1.0590 hc         1 ACE       0.041700
     66 H10         17.1680     7.8410     0.2090 hc         1 ACE       0.039700
     67 H11         18.3980     6.6340     0.6020 hc         1 ACE       0.039700
     68 H12         17.7030     6.7090     3.0050 hc         1 ACE       0.039700
     69 H13         16.4760     7.9180     2.6120 hc         1 ACE       0.039700
     70 H14         18.2580     9.4430     1.7390 hc         1 ACE       0.039700
     71 H15         19.4850     8.2350     2.1310 hc         1 ACE       0.039700
     72 H16         18.8030     8.3220     4.5370 hc         1 ACE       0.039200
     73 H17         17.5760     9.5310     4.1450 hc         1 ACE       0.039200
     74 H18         19.3580    11.0560     3.2710 hc         1 ACE       0.039700
     75 H19         20.5850     9.8470     3.6630 hc         1 ACE       0.039700
     76 H20         19.9050     9.9370     6.0700 hc         1 ACE       0.039200
     77 H21         18.6780    11.1460     5.6780 hc         1 ACE       0.039200
     78 H22         20.4600    12.6720     4.8070 hc         1 ACE       0.039700
     79 H23         21.6860    11.4640     5.1990 hc         1 ACE       0.039700
     80 H24         21.0190    11.5680     7.6120 hc         1 ACE       0.038200
     81 H25         19.7920    12.7760     7.2210 hc         1 ACE       0.038200
     82 H26         22.8040    13.0970     6.7600 hc         1 ACE       0.032367
     83 H27         21.8600    13.8560     8.0570 hc         1 ACE       0.032367
     84 H28         21.5720    14.3120     6.3660 hc         1 ACE       0.032367
     85 H29         13.5770     2.8010    -0.1880 hc         1 ACE       0.099700
     86 H30         14.2100     1.3920    -1.0600 hc         1 ACE       0.099700
     87 H31         13.5010     1.1130     0.9910 h1         1 ACE       0.075700
     88 H32         11.6740    -1.3100     1.2270 hc         1 ACE       0.060200
     89 H33         13.2770    -1.2220     0.5330 hc         1 ACE       0.060200
     90 H34         12.4320    -0.9420     3.4470 hc         1 ACE       0.048700
     91 H35         13.9690    -0.2360     2.9130 hc         1 ACE       0.048700
     92 H36         14.7390    -2.4240     2.1290 hc         1 ACE       0.041700
     93 H37         13.2190    -3.1640     2.6700 hc         1 ACE       0.041700
     94 H38         13.6570    -2.3140     4.9990 hc         1 ACE       0.043200
     95 H39         15.1610    -1.5760     4.4510 hc         1 ACE       0.043200
     96 H40         16.0050    -3.8080     3.7280 hc         1 ACE       0.039200
     97 H41         14.4960    -4.5540     4.2710 hc         1 ACE       0.039200
     98 H42         14.9270    -3.7270     6.5940 hc         1 ACE       0.040200
     99 H43         16.4350    -2.9860     6.0510 hc         1 ACE       0.040200
    100 H44         17.2680    -5.2260     5.3070 hc         1 ACE       0.039700
    101 H45         15.7590    -5.9670     5.8490 hc         1 ACE       0.039700
    102 H46         16.1970    -5.1580     8.1750 hc         1 ACE       0.039700
    103 H47         17.7060    -4.4160     7.6340 hc         1 ACE       0.039700
    104 H48         18.5380    -6.6560     6.8880 hc         1 ACE       0.039700
    105 H49         17.0290    -7.3970     7.4300 hc         1 ACE       0.039700
    106 H50         17.4680    -6.5900     9.7580 hc         1 ACE       0.039700
    107 H51         18.9770    -5.8490     9.2170 hc         1 ACE       0.039700
    108 H52         19.8100    -8.0890     8.4740 hc         1 ACE       0.039700
    109 H53         18.3020    -8.8290     9.0150 hc         1 ACE       0.039700
    110 H54         18.7510    -8.0380    11.3510 hc         1 ACE       0.038700
    111 H55         20.2600    -7.2970    10.8090 hc         1 ACE       0.038700
    112 H56         19.5880   -10.2800    10.6270 hc         1 ACE       0.032700
    113 H57         20.6790    -9.5270    11.8060 hc         1 ACE       0.032700
    114 H58         21.1040    -9.5360    10.0830 hc         1 ACE       0.032700
    115 H59         12.4280     1.2370     3.1690 hc         1 ACE       0.109700
    116 H60         10.8230     0.9490     2.4380 hc         1 ACE       0.109700
    117 H61         11.0430     1.9210     4.5130 h1         1 ACE       0.076700
    118 H62          8.8020     2.0770     4.8800 hc         1 ACE       0.058200
    119 H63          8.7930     3.8300     4.9430 hc         1 ACE       0.058200
    120 H64          8.9830     2.1980     2.3610 hc         1 ACE       0.047200
    121 H65          8.9720     3.9640     2.4620 hc         1 ACE       0.047200
    122 H66          6.7430     3.9000     3.5320 hc         1 ACE       0.040700
    123 H67          6.7400     2.1320     3.4220 hc         1 ACE       0.040700
    124 H68          7.0000     2.2950     0.9310 hc         1 ACE       0.044200
    125 H69          7.0010     4.0560     1.0450 hc         1 ACE       0.044200
    126 H70          4.7310     3.9930     2.0900 hc         1 ACE       0.038700
    127 H71          4.7290     2.2290     1.9790 hc         1 ACE       0.038700
    128 H72          4.9780     2.3860    -0.5060 hc         1 ACE       0.041700
    129 H73          4.9780     4.1490    -0.3950 hc         1 ACE       0.041700
    130 H74          2.7090     4.0830     0.6600 hc         1 ACE       0.039200
    131 H75          2.7090     2.3200     0.5490 hc         1 ACE       0.039200
    132 H76          2.9510     2.4760    -1.9370 hc         1 ACE       0.040200
    133 H77          2.9510     4.2390    -1.8260 hc         1 ACE       0.040200
    134 H78          0.6820     4.1730    -0.7720 hc         1 ACE       0.039200
    135 H79          0.6820     2.4100    -0.8830 hc         1 ACE       0.039200
    136 H80          0.9220     2.5660    -3.3700 hc         1 ACE       0.039700
    137 H81          0.9220     4.3290    -3.2590 hc         1 ACE       0.039700
    138 H82         -1.3480     4.2630    -2.2070 hc         1 ACE       0.039200
    139 H83         -1.3480     2.5010    -2.3180 hc         1 ACE       0.039200
    140 H84         -1.1270     2.6570    -4.8100 hc         1 ACE       0.038700
    141 H85         -1.1270     4.4200    -4.6990 hc         1 ACE       0.038700
    142 H86         -3.4030     2.5880    -3.7760 hc         1 ACE       0.032367
    143 H87         -3.3880     3.5700    -5.2540 hc         1 ACE       0.032367
    144 H88         -3.4030     4.3590    -3.6640 hc         1 ACE       0.032367
    145 H89         10.9080     3.3270     6.5320 hc         1 ACE       0.092700
    146 H90         10.9510     4.8060     5.5190 hc         1 ACE       0.092700
    147 H91         12.7600     4.8550     7.1900 ho         1 ACE       0.468000
@<TRIPOS>BOND
     1     1     2 1   
     2     1    56 1   
     3     2     3 1   
     4     2    16 1   
     5     2    57 1   
     6     3     4 1   
     7     3    58 1   
     8     3    59 1   
     9     4     5 1   
    10     4    60 1   
    11     4    61 1   
    12     5     6 1   
    13     5    62 1   
    14     5    63 1   
    15     6     7 1   
    16     6    64 1   
    17     6    65 1   
    18     7     8 1   
    19     7    66 1   
    20     7    67 1   
    21     8     9 1   
    22     8    68 1   
    23     8    69 1   
    24     9    10 1   
    25     9    70 1   
    26     9    71 1   
    27    10    11 1   
    28    10    72 1   
    29    10    73 1   
    30    11    12 1   
    31    11    74 1   
    32    11    75 1   
    33    12    13 1   
    34    12    76 1   
    35    12    77 1   
    36    13    14 1   
    37    13    78 1   
    38    13    79 1   
    39    14    15 1   
    40    14    80 1   
    41    14    81 1   
    42    15    82 1   
    43    15    83 1   
    44    15    84 1   
    45    16    17 1   
    46    16    85 1   
    47    16    86 1   
    48    17    18 1   
    49    17    18 1   
    50    17    19 1   
    51    19    20 1   
    52    20    21 1   
    53    20    34 1   
    54    20    87 1   
    55    21    22 1   
    56    21    88 1   
    57    21    89 1   
    58    22    23 1   
    59    22    90 1   
    60    22    91 1   
    61    23    24 1   
    62    23    92 1   
    63    23    93 1   
    64    24    25 1   
    65    24    94 1   
    66    24    95 1   
    67    25    26 1   
    68    25    96 1   
    69    25    97 1   
    70    26    27 1   
    71    26    98 1   
    72    26    99 1   
    73    27    28 1   
    74    27   100 1   
    75    27   101 1   
    76    28    29 1   
    77    28   102 1   
    78    28   103 1   
    79    29    30 1   
    80    29   104 1   
    81    29   105 1   
    82    30    31 1   
    83    30   106 1   
    84    30   107 1   
    85    31    32 1   
    86    31   108 1   
    87    31   109 1   
    88    32    33 1   
    89    32   110 1   
    90    32   111 1   
    91    33   112 1   
    92    33   113 1   
    93    33   114 1   
    94    34    35 1   
    95    34   115 1   
    96    34   116 1   
    97    35    36 1   
    98    35    36 1   
    99    35    37 1   
   100    37    38 1   
   101    38    39 1   
   102    38    52 1   
   103    38   117 1   
   104    39    40 1   
   105    39   118 1   
   106    39   119 1   
   107    40    41 1   
   108    40   120 1   
   109    40   121 1   
   110    41    42 1   
   111    41   122 1   
   112    41   123 1   
   113    42    43 1   
   114    42   124 1   
   115    42   125 1   
   116    43    44 1   
   117    43   126 1   
   118    43   127 1   
   119    44    45 1   
   120    44   128 1   
   121    44   129 1   
   122    45    46 1   
   123    45   130 1   
   124    45   131 1   
   125    46    47 1   
   126    46   132 1   
   127    46   133 1   
   128    47    48 1   
   129    47   134 1   
   130    47   135 1   
   131    48    49 1   
   132    48   136 1   
   133    48   137 1   
   134    49    50 1   
   135    49   138 1   
   136    49   139 1   
   137    50    51 1   
   138    50   140 1   
   139    50   141 1   
   140    51   142 1   
   141    51   143 1   
   142    51   144 1   
   143    52    53 1   
   144    52   145 1   
   145    52   146 1   
   146    53    54 1   
   147    53    54 1   
   148    53    55 1   
   149    55   147 1   
@<TRIPOS>SUBSTRUCTURE
     1 ACE         1 TEMP              0 ****  ****    0 ROOT
