@<TRIPOS>MOLECULE
AAE
   39    41     1     0     0
SMALL
abcg2


@<TRIPOS>ATOM
      1 O            1.0490     0.0930    -0.0440 oh         1 AAE      -0.659000
      2 C            2.4710     0.0720    -0.0580 c3         1 AAE       0.156600
      3 C1           2.9890     1.2390     0.7710 c3         1 AAE      -0.084400
      4 C2           4.5210     1.3080     0.8200 c3         1 AAE      -0.077400
      5 C3           4.9800     2.4890     1.6600 c3         1 AAE       0.590000
      6 O1           4.2210     3.2730     2.2180 os         1 AAE      -0.538000
      7 O2           6.3460     2.5770     1.7220 os         1 AAE      -0.471000
      8 C4           6.8220     3.6920     2.5160 c3         1 AAE       0.162600
      9 C5           8.3540     3.7190     2.5340 c3         1 AAE      -0.086400
     10 C6           8.9470     4.8800     3.3600 c3         1 AAE      -0.076400
     11 C7          10.4720     4.8460     3.3360 c3         1 AAE       0.590000
     12 O3          11.1270     4.0020     2.7360 os         1 AAE      -0.541000
     13 O4          11.0300     5.8660     4.0610 os         1 AAE      -0.468000
     14 C8          12.4800     5.8620     4.0580 c3         1 AAE       0.161600
     15 C9          13.0250     7.0280     4.8870 c3         1 AAE      -0.081400
     16 C10         14.5640     7.0860     4.9280 c3         1 AAE      -0.123400
     17 C11         15.0310     8.2620     5.7640 c3         1 AAE       0.579000
     18 O5          14.2810     9.0500     6.3250 os         1 AAE      -0.481000
     19 O6          16.3730     8.3870     5.8530 oh         1 AAE      -0.626000
     20 H            0.7400    -0.6590    -0.5780 ho         1 AAE       0.442000
     21 H1           2.8060     0.1510    -1.0970 h1         1 AAE       0.022200
     22 H2           2.8060    -0.8830     0.3570 h1         1 AAE       0.022200
     23 H3           2.5820     1.1640     1.7880 hc         1 AAE       0.073200
     24 H4           2.5820     2.1750     0.3660 hc         1 AAE       0.073200
     25 H5           4.9130     1.4160    -0.1970 hc         1 AAE       0.078700
     26 H6           4.9130     0.3820     1.2570 hc         1 AAE       0.078700
     27 H7           6.4450     3.5870     3.5390 h1         1 AAE       0.054200
     28 H8           6.4450     4.6250     2.0800 h1         1 AAE       0.054200
     29 H9           8.7230     3.7740     1.5020 hc         1 AAE       0.071700
     30 H10          8.7230     2.7620     2.9260 hc         1 AAE       0.071700
     31 H11          8.6080     4.8030     4.3990 hc         1 AAE       0.083200
     32 H12          8.6080     5.8370     2.9460 hc         1 AAE       0.083200
     33 H13         12.8350     5.9540     3.0250 h1         1 AAE       0.051700
     34 H14         12.8350     4.9170     4.4840 h1         1 AAE       0.051700
     35 H15         12.6320     6.9580     5.9090 hc         1 AAE       0.076200
     36 H16         12.6320     7.9700     4.4850 hc         1 AAE       0.076200
     37 H17         14.9620     7.1980     3.9130 hc         1 AAE       0.072700
     38 H18         14.9620     6.1640     5.3670 hc         1 AAE       0.072700
     39 H19         16.9040     7.7200     5.3790 ho         1 AAE       0.462000
@<TRIPOS>BOND
     1     1     2 1   
     2     1    20 1   
     3     2     3 1   
     4     2    21 1   
     5     2    22 1   
     6     3     4 1   
     7     3    23 1   
     8     3    24 1   
     9     4     5 1   
    10     4    25 1   
    11     4    26 1   
    12     5     6 1   
    13     5     6 1   
    14     5     7 1   
    15     7     8 1   
    16     8     9 1   
    17     8    27 1   
    18     8    28 1   
    19     9    10 1   
    20     9    29 1   
    21     9    30 1   
    22    10    11 1   
    23    10    31 1   
    24    10    32 1   
    25    11    12 1   
    26    11    12 1   
    27    11    13 1   
    28    13    14 1   
    29    14    15 1   
    30    14    33 1   
    31    14    34 1   
    32    15    16 1   
    33    15    35 1   
    34    15    36 1   
    35    16    17 1   
    36    16    37 1   
    37    16    38 1   
    38    17    18 1   
    39    17    18 1   
    40    17    19 1   
    41    19    39 1   
@<TRIPOS>SUBSTRUCTURE
     1 AAE         1 TEMP              0 ****  ****    0 ROOT
