@<TRIPOS>MOLECULE
ACY
   78    83     1     0     0
SMALL
abcg2


@<TRIPOS>ATOM
      1 O           11.9380     3.2000    -3.2340 oh         1 ACY      -0.665000
      2 C           12.9820     2.7850    -2.3500 c3         1 ACY       0.179300
      3 C1          14.0700     2.1330    -3.2100 c3         1 ACY      -0.076400
      4 C2          14.9200     3.2110    -3.8730 c3         1 ACY      -0.079400
      5 C3          16.0110     2.5920    -4.7350 c3         1 ACY      -0.075400
      6 C4          16.8670     3.6850    -5.3670 c3         1 ACY      -0.056400
      7 C5          17.9500     3.1030    -6.2230 c3         1 ACY      -0.120700
      8 C6          18.8260     3.8700    -6.8830 c3         1 ACY      -0.146400
      9 C7          12.4250     1.7830    -1.3510 c3         1 ACY      -0.159400
     10 C8          11.3640     2.3830    -0.4650 c3         1 ACY       0.595000
     11 O1          10.9480     3.5250    -0.6450 os         1 ACY      -0.509000
     12 O2          10.7720     1.5690     0.4470 os         1 ACY      -0.458000
     13 C9          11.3510     0.3230     0.9090 c3         1 ACY       0.174300
     14 C10         10.7750    -0.8160     0.0530 c3         1 ACY      -0.107400
     15 C11         11.8630    -1.4510    -0.8050 c3         1 ACY      -0.081400
     16 C12         11.2970    -2.5290    -1.7070 c3         1 ACY      -0.076400
     17 C13         12.4010    -3.0570    -2.6170 c3         1 ACY      -0.055400
     18 C14         11.8900    -4.1530    -3.4930 c3         1 ACY      -0.125700
     19 C15         12.6770    -4.7910    -4.3660 c3         1 ACY      -0.139400
     20 C16         10.9600     0.1190     2.3810 c3         1 ACY      -0.126400
     21 C17         11.5270     1.2160     3.2580 c3         1 ACY       0.596000
     22 O3          12.1960     2.1400     2.8050 os         1 ACY      -0.495000
     23 O4          11.2270     1.1800     4.5820 os         1 ACY      -0.477000
     24 C18         10.8150    -0.0160     5.2870 c3         1 ACY       0.174300
     25 C19          9.2840    -0.0160     5.3200 c3         1 ACY      -0.111400
     26 C20          8.7270    -1.1070     6.2180 c3         1 ACY      -0.080400
     27 C21          7.2110    -1.1060     6.2070 c3         1 ACY      -0.077400
     28 C22          6.7000    -2.1920     7.1460 c3         1 ACY      -0.054400
     29 C23          5.2070    -2.2170     7.1730 c3         1 ACY      -0.124700
     30 C24          4.5250    -3.0900     7.9220 c3         1 ACY      -0.141400
     31 C25         11.4160     0.0150     6.7080 c3         1 ACY      -0.134400
     32 C26         12.9190    -0.0190     6.6690 c3         1 ACY       0.581000
     33 O5          13.5850    -0.0910     5.6420 os         1 ACY      -0.494000
     34 O6          13.4940    -0.0400     7.8920 oh         1 ACY      -0.625000
     35 H           11.2630     3.6350    -2.6720 ho         1 ACY       0.461000
     36 H1          13.3730     3.6670    -1.8310 h1         1 ACY       0.052700
     37 H2          14.7190     1.4900    -2.6040 hc         1 ACY       0.050700
     38 H3          13.6160     1.5040    -3.9880 hc         1 ACY       0.050700
     39 H4          15.3780     3.8360    -3.0960 hc         1 ACY       0.049700
     40 H5          14.2870     3.8660    -4.4840 hc         1 ACY       0.049700
     41 H6          15.5570     1.9690    -5.5150 hc         1 ACY       0.041700
     42 H7          16.6380     1.9340    -4.1200 hc         1 ACY       0.041700
     43 H8          17.3160     4.2970    -4.5750 hc         1 ACY       0.047700
     44 H9          16.2290     4.3370    -5.9760 hc         1 ACY       0.047700
     45 H10         18.0200     2.0210    -6.3080 hc         1 ACY       0.078700
     46 H11         18.7810     4.9530    -6.8190 hc         1 ACY       0.071200
     47 H12         19.6010     3.4270    -7.4980 hc         1 ACY       0.071200
     48 H13         13.2500     1.3890    -0.7490 hc         1 ACY       0.089200
     49 H14         11.9290     1.0170    -1.9450 hc         1 ACY       0.089200
     50 H15         12.4430     0.3640     0.8570 h1         1 ACY       0.079700
     51 H16         10.3500    -1.6060     0.6840 hc         1 ACY       0.060700
     52 H17          9.9590    -0.4470    -0.5820 hc         1 ACY       0.060700
     53 H18         12.6570    -1.8500    -0.1660 hc         1 ACY       0.043700
     54 H19         12.3500    -0.7250    -1.4470 hc         1 ACY       0.043700
     55 H20         10.4810    -2.1160    -2.3150 hc         1 ACY       0.046200
     56 H21         10.8780    -3.3350    -1.0940 hc         1 ACY       0.046200
     57 H22         13.2300    -3.4260    -2.0020 hc         1 ACY       0.048200
     58 H23         12.7860    -2.2370    -3.2390 hc         1 ACY       0.048200
     59 H24         10.8430    -4.4350    -3.4120 hc         1 ACY       0.080700
     60 H25         13.7250    -4.5280    -4.4730 hc         1 ACY       0.073700
     61 H26         12.2820    -5.5850    -4.9900 hc         1 ACY       0.073700
     62 H27         11.3620    -0.8470     2.7050 hc         1 ACY       0.098200
     63 H28          9.8700     0.1250     2.4620 hc         1 ACY       0.098200
     64 H29         11.1840    -0.9120     4.7790 h1         1 ACY       0.060700
     65 H30          8.9170     0.9690     5.6380 hc         1 ACY       0.066200
     66 H31          8.8900    -0.1530     4.3070 hc         1 ACY       0.066200
     67 H32          9.0480    -0.9460     7.2520 hc         1 ACY       0.042700
     68 H33          9.1130    -2.0820     5.8960 hc         1 ACY       0.042700
     69 H34          6.8430    -1.2730     5.1870 hc         1 ACY       0.048700
     70 H35          6.8450    -0.1240     6.5330 hc         1 ACY       0.048700
     71 H36          7.0840    -2.0080     8.1580 hc         1 ACY       0.047200
     72 H37          7.0830    -3.1660     6.8160 hc         1 ACY       0.047200
     73 H38          4.6640    -1.4980     6.5630 hc         1 ACY       0.082700
     74 H39          5.0370    -3.8190     8.5420 hc         1 ACY       0.073200
     75 H40          3.4410    -3.0890     7.9230 hc         1 ACY       0.073200
     76 H41         11.1160    -0.8820     7.2620 hc         1 ACY       0.095700
     77 H42         11.0790     0.9060     7.2500 hc         1 ACY       0.095700
     78 H43         12.8860    -0.0160     8.6550 ho         1 ACY       0.487000
@<TRIPOS>BOND
     1     1     2 1   
     2     1    35 1   
     3     2     3 1   
     4     2     9 1   
     5     2    36 1   
     6     3     4 1   
     7     3    37 1   
     8     3    38 1   
     9     4     5 1   
    10     4    39 1   
    11     4    40 1   
    12     5     6 1   
    13     5    41 1   
    14     5    42 1   
    15     6     7 1   
    16     6    43 1   
    17     6    44 1   
    18     7     8 1   
    19     7     8 1   
    20     7    45 1   
    21     8    46 1   
    22     8    47 1   
    23     9    10 1   
    24     9    48 1   
    25     9    49 1   
    26    10    11 1   
    27    10    11 1   
    28    10    12 1   
    29    12    13 1   
    30    13    14 1   
    31    13    20 1   
    32    13    50 1   
    33    14    15 1   
    34    14    51 1   
    35    14    52 1   
    36    15    16 1   
    37    15    53 1   
    38    15    54 1   
    39    16    17 1   
    40    16    55 1   
    41    16    56 1   
    42    17    18 1   
    43    17    57 1   
    44    17    58 1   
    45    18    19 1   
    46    18    19 1   
    47    18    59 1   
    48    19    60 1   
    49    19    61 1   
    50    20    21 1   
    51    20    62 1   
    52    20    63 1   
    53    21    22 1   
    54    21    22 1   
    55    21    23 1   
    56    23    24 1   
    57    24    25 1   
    58    24    31 1   
    59    24    64 1   
    60    25    26 1   
    61    25    65 1   
    62    25    66 1   
    63    26    27 1   
    64    26    67 1   
    65    26    68 1   
    66    27    28 1   
    67    27    69 1   
    68    27    70 1   
    69    28    29 1   
    70    28    71 1   
    71    28    72 1   
    72    29    30 1   
    73    29    30 1   
    74    29    73 1   
    75    30    74 1   
    76    30    75 1   
    77    31    32 1   
    78    31    76 1   
    79    31    77 1   
    80    32    33 1   
    81    32    33 1   
    82    32    34 1   
    83    34    78 1   
@<TRIPOS>SUBSTRUCTURE
     1 ACY         1 TEMP              0 ****  ****    0 ROOT
