@<TRIPOS>MOLECULE
AFG
   81    95     1     0     0
SMALL
abcg2


@<TRIPOS>ATOM
      1 O            1.0190    -0.0430    -0.0730 oh         1 AFG      -0.723000
      2 C            2.4510    -0.0950    -0.0570 c3         1 AFG       0.172300
      3 C1           2.9180    -1.5530    -0.2960 c3         1 AFG       0.109600
      4 O1           2.3670    -2.4450     0.6960 os         1 AFG      -0.418000
      5 C2           2.7790    -3.7580     0.6190 c3         1 AFG       0.178000
      6 C3           4.1070    -4.1910     0.5310 c3         1 AFG      -0.159700
      7 C4           4.4330    -5.5710     0.4690 c3         1 AFG      -0.035000
      8 C5           5.8370    -6.0860     0.3090 c3         1 AFG      -0.066100
      9 C6           3.4120    -6.5120     0.5270 c3         1 AFG      -0.123700
     10 C7           2.1020    -6.0910     0.7240 c3         1 AFG      -0.055700
     11 C8           1.7890    -4.7260     0.7720 c3         1 AFG      -0.119700
     12 C9           2.9990     0.9070    -1.1040 c3         1 AFG      -0.082400
     13 C10          4.4930     1.0480    -0.9730 c3         1 AFG       0.593000
     14 O2           5.0830     0.6810     0.0450 os         1 AFG      -0.533000
     15 O3           5.0940     1.6470    -2.0530 os         1 AFG      -0.466000
     16 C11          6.5630     1.6930    -2.0160 c3         1 AFG       0.177300
     17 C12          7.1210     0.2820    -2.3050 c3         1 AFG       0.139600
     18 O4           6.7590    -0.6260    -1.2680 os         1 AFG      -0.406000
     19 C13          7.1080    -1.9150    -1.4980 c3         1 AFG       0.178000
     20 C14          8.4150    -2.3780    -1.4370 c3         1 AFG      -0.121700
     21 C15          8.6930    -3.7490    -1.5870 c3         1 AFG      -0.038000
     22 C16         10.0830    -4.3010    -1.6570 c3         1 AFG      -0.066100
     23 C17          7.6440    -4.6330    -1.7910 c3         1 AFG      -0.121700
     24 C18          6.3440    -4.1540    -1.8700 c3         1 AFG      -0.051700
     25 C19          6.0780    -2.8110    -1.6750 c3         1 AFG      -0.164700
     26 C20          7.1290     2.7130    -3.0610 c3         1 AFG      -0.103400
     27 C21          8.6430     2.8510    -2.9340 c3         1 AFG       0.609000
     28 O5           9.2340     2.4880    -1.9140 os         1 AFG      -0.573000
     29 O6           9.2630     3.4390    -4.0140 os         1 AFG      -0.451000
     30 C22         10.7470     3.4740    -3.9830 c3         1 AFG       0.141300
     31 C23         11.2910     2.0750    -4.3240 c3         1 AFG       0.150600
     32 O7          10.9350     1.1860    -3.2800 os         1 AFG      -0.397000
     33 C24         11.3060    -0.0850    -3.5480 c3         1 AFG       0.157000
     34 C25         12.6240    -0.4800    -3.6980 c3         1 AFG      -0.165700
     35 C26         12.9210    -1.8350    -3.8310 c3         1 AFG      -0.024000
     36 C27         14.3230    -2.2950    -4.0360 c3         1 AFG      -0.073100
     37 C28         11.8910    -2.7700    -3.8310 c3         1 AFG      -0.123700
     38 C29         10.5750    -2.3360    -3.8300 c3         1 AFG      -0.058700
     39 C30         10.2880    -1.0050    -3.6270 c3         1 AFG      -0.118700
     40 C31         11.3080     4.4870    -5.0130 c3         1 AFG      -0.155400
     41 C32         12.8320     4.5450    -4.9760 c3         1 AFG       0.585000
     42 O8          13.5350     3.9480    -4.1700 os         1 AFG      -0.501000
     43 O9          13.3950     5.3170    -5.9270 oh         1 AFG      -0.623000
     44 H            0.7300    -0.7010     0.5900 ho         1 AFG       0.525000
     45 H1           2.7560     0.2140     0.9500 h1         1 AFG       0.073700
     46 H2           4.0000    -1.5580    -0.2170 h1         1 AFG       0.058200
     47 H3           2.5900    -1.8820    -1.2910 h1         1 AFG       0.058200
     48 H4           4.9080    -3.4600     0.5450 hc         1 AFG       0.100700
     49 H5           6.5580    -5.2750     0.4210 hc         1 AFG       0.047033
     50 H6           5.9420    -6.5620    -0.6780 hc         1 AFG       0.047033
     51 H7           6.1110    -6.8350     1.0510 hc         1 AFG       0.047033
     52 H8           3.6470    -7.5720     0.4540 hc         1 AFG       0.094700
     53 H9           1.3240    -6.8360     0.8580 hc         1 AFG       0.095700
     54 H10          0.7630    -4.4200     0.9450 hc         1 AFG       0.108700
     55 H11          2.5640     1.8980    -0.9250 hc         1 AFG       0.098700
     56 H12          2.7110     0.5960    -2.1150 hc         1 AFG       0.098700
     57 H13          6.8660     2.0140    -1.0110 h1         1 AFG       0.101700
     58 H14          8.2020     0.3470    -2.3060 h1         1 AFG       0.069700
     59 H15          6.7480    -0.0740    -3.2750 h1         1 AFG       0.069700
     60 H16          9.2170    -1.6610    -1.2930 hc         1 AFG       0.108700
     61 H17         10.8160    -3.5000    -1.5470 hc         1 AFG       0.047033
     62 H18         10.2050    -4.7830    -2.6390 hc         1 AFG       0.047033
     63 H19         10.2990    -5.0490    -0.8970 hc         1 AFG       0.047033
     64 H20          7.8400    -5.7020    -1.8280 hc         1 AFG       0.094700
     65 H21          5.5060    -4.8350    -1.9650 hc         1 AFG       0.094700
     66 H22          5.0540    -2.4870    -1.6040 hc         1 AFG       0.097700
     67 H23          6.6970     3.7020    -2.8770 hc         1 AFG       0.100200
     68 H24          6.8480     2.4030    -4.0740 hc         1 AFG       0.100200
     69 H25         11.0590     3.7820    -2.9760 h1         1 AFG       0.090700
     70 H26         12.3760     2.0720    -4.4090 h1         1 AFG       0.082700
     71 H27         10.8650     1.7330    -5.2760 h1         1 AFG       0.082700
     72 H28         13.4170     0.2590    -3.7040 hc         1 AFG       0.104700
     73 H29         14.9910    -1.4390    -4.1630 hc         1 AFG       0.053367
     74 H30         14.3580    -2.8880    -4.9550 hc         1 AFG       0.053367
     75 H31         14.6660    -2.8970    -3.1920 hc         1 AFG       0.053367
     76 H32         12.1060    -3.8350    -3.8170 hc         1 AFG       0.095700
     77 H33          9.7460    -3.0320    -3.8850 hc         1 AFG       0.093700
     78 H34          9.2640    -0.7040    -3.5020 hc         1 AFG       0.107700
     79 H35         10.9210     5.4890    -4.8030 hc         1 AFG       0.093200
     80 H36         10.9810     4.2050    -6.0220 hc         1 AFG       0.093200
     81 H37         12.7930     5.8100    -6.5120 ho         1 AFG       0.492000
@<TRIPOS>BOND
     1     1     2 1   
     2     1    44 1   
     3     2     3 1   
     4     2    12 1   
     5     2    45 1   
     6     3     4 1   
     7     3    46 1   
     8     3    47 1   
     9     4     5 1   
    10     5     6 1   
    11     5     6 1   
    12     5    11 1   
    13     6     7 1   
    14     6    48 1   
    15     7     8 1   
    16     7     9 1   
    17     7     9 1   
    18     8    49 1   
    19     8    50 1   
    20     8    51 1   
    21     9    10 1   
    22     9    52 1   
    23    10    11 1   
    24    10    11 1   
    25    10    53 1   
    26    11    54 1   
    27    12    13 1   
    28    12    55 1   
    29    12    56 1   
    30    13    14 1   
    31    13    14 1   
    32    13    15 1   
    33    15    16 1   
    34    16    17 1   
    35    16    26 1   
    36    16    57 1   
    37    17    18 1   
    38    17    58 1   
    39    17    59 1   
    40    18    19 1   
    41    19    20 1   
    42    19    20 1   
    43    19    25 1   
    44    20    21 1   
    45    20    60 1   
    46    21    22 1   
    47    21    23 1   
    48    21    23 1   
    49    22    61 1   
    50    22    62 1   
    51    22    63 1   
    52    23    24 1   
    53    23    64 1   
    54    24    25 1   
    55    24    25 1   
    56    24    65 1   
    57    25    66 1   
    58    26    27 1   
    59    26    67 1   
    60    26    68 1   
    61    27    28 1   
    62    27    28 1   
    63    27    29 1   
    64    29    30 1   
    65    30    31 1   
    66    30    40 1   
    67    30    69 1   
    68    31    32 1   
    69    31    70 1   
    70    31    71 1   
    71    32    33 1   
    72    33    34 1   
    73    33    34 1   
    74    33    39 1   
    75    34    35 1   
    76    34    72 1   
    77    35    36 1   
    78    35    37 1   
    79    35    37 1   
    80    36    73 1   
    81    36    74 1   
    82    36    75 1   
    83    37    38 1   
    84    37    76 1   
    85    38    39 1   
    86    38    39 1   
    87    38    77 1   
    88    39    78 1   
    89    40    41 1   
    90    40    79 1   
    91    40    80 1   
    92    41    42 1   
    93    41    42 1   
    94    41    43 1   
    95    43    81 1   
@<TRIPOS>SUBSTRUCTURE
     1 AFG         1 TEMP              0 ****  ****    0 ROOT
