@<TRIPOS>MOLECULE
AFC
   81    95     1     0     0
SMALL
abcg2


@<TRIPOS>ATOM
      1 O            1.0270    -0.0030     0.0150 oh         1 AFC      -0.723000
      2 C            2.4590    -0.0460     0.0540 c3         1 AFC       0.171300
      3 C1           2.9100    -1.4320     0.5730 c3         1 AFC       0.110600
      4 O1           2.3100    -1.7050     1.8610 os         1 AFC      -0.417000
      5 C2           2.6910    -2.8660     2.4890 c3         1 AFC       0.169000
      6 C3           3.9950    -3.3020     2.6520 c3         1 AFC      -0.156700
      7 C4           4.2970    -4.5130     3.3100 c3         1 AFC      -0.056700
      8 C5           3.3020    -5.2860     3.8860 c3         1 AFC      -0.099000
      9 C6           3.6590    -6.5680     4.5800 c3         1 AFC      -0.057100
     10 C7           2.0030    -4.7770     3.8520 c3         1 AFC      -0.060700
     11 C8           1.7050    -3.5860     3.1550 c3         1 AFC      -0.110700
     12 C9           3.0150     0.3120    -1.3460 c3         1 AFC      -0.083400
     13 C10          4.5090     0.5040    -1.2960 c3         1 AFC       0.593000
     14 O2           5.0970     0.6820    -0.2300 os         1 AFC      -0.534000
     15 O3           5.1100     0.4980    -2.5330 os         1 AFC      -0.467000
     16 C11          6.5780     0.5440    -2.5190 c3         1 AFC       0.177300
     17 C12          7.1240    -0.8370    -2.0790 c3         1 AFC       0.139600
     18 O4           6.6890    -1.1550    -0.7580 os         1 AFC      -0.406000
     19 C13          7.0640    -2.3430    -0.2290 c3         1 AFC       0.169000
     20 C14          8.3560    -2.7030     0.0740 c3         1 AFC      -0.112700
     21 C15          8.6400    -3.9170     0.7330 c3         1 AFC      -0.060700
     22 C16          7.6270    -4.7550     1.1640 c3         1 AFC      -0.100000
     23 C17          7.9010    -5.9940     1.9540 c3         1 AFC      -0.057100
     24 C18          6.3340    -4.3650     0.8780 c3         1 AFC      -0.055700
     25 C19          6.0610    -3.1730     0.2050 c3         1 AFC      -0.156700
     26 C20          7.1540     0.9320    -3.9260 c3         1 AFC      -0.104400
     27 C21          8.6720     1.1060    -3.8810 c3         1 AFC       0.608000
     28 O5           9.2640     1.2790    -2.8140 os         1 AFC      -0.572000
     29 O6           9.2950     1.0910    -5.1090 os         1 AFC      -0.449000
     30 C22         10.7800     1.1320    -5.0990 c3         1 AFC       0.140300
     31 C23         11.3340    -0.2650    -4.7210 c3         1 AFC       0.150600
     32 O7          10.9540    -0.5620    -3.3920 os         1 AFC      -0.396000
     33 C24         11.3510    -1.7680    -2.9280 c3         1 AFC       0.150000
     34 C25         12.6480    -2.2460    -2.8800 c3         1 AFC      -0.157700
     35 C26         12.9280    -3.4280    -2.1710 c3         1 AFC      -0.050700
     36 C27         11.9110    -4.1430    -1.5400 c3         1 AFC      -0.098000
     37 C28         12.1340    -5.3520    -0.6870 c3         1 AFC      -0.057100
     38 C29         10.6140    -3.7140    -1.7330 c3         1 AFC      -0.063700
     39 C30         10.3440    -2.5250    -2.3820 c3         1 AFC      -0.108700
     40 C31         11.3350     1.5320    -6.4920 c3         1 AFC      -0.155400
     41 C32         12.8570     1.6050    -6.4920 c3         1 AFC       0.583000
     42 O8          13.5610     1.4740    -5.4970 os         1 AFC      -0.496000
     43 O9          13.4190     1.8220    -7.6970 oh         1 AFC      -0.624000
     44 H            0.7430    -0.2690     0.9130 ho         1 AFC       0.525000
     45 H1           2.7680     0.7140     0.7820 h1         1 AFC       0.075700
     46 H2           3.9880    -1.3820     0.6750 h1         1 AFC       0.056700
     47 H3           2.6070    -2.2120    -0.1370 h1         1 AFC       0.056700
     48 H4           4.8190    -2.6910     2.3090 hc         1 AFC       0.099700
     49 H5           5.3280    -4.8570     3.3770 hc         1 AFC       0.094700
     50 H6           4.7160    -6.8280     4.4310 hc         1 AFC       0.043700
     51 H7           3.0700    -7.4030     4.1860 hc         1 AFC       0.043700
     52 H8           3.4960    -6.4720     5.6570 hc         1 AFC       0.043700
     53 H9           1.2100    -5.2860     4.3910 hc         1 AFC       0.095700
     54 H10          0.6920    -3.1980     3.1620 hc         1 AFC       0.108700
     55 H11          2.5820     1.2650    -1.6750 hc         1 AFC       0.099200
     56 H12          2.7310    -0.4530    -2.0760 hc         1 AFC       0.099200
     57 H13          6.8850     1.3120    -1.7960 h1         1 AFC       0.102700
     58 H14          8.2010    -0.7570    -2.0680 h1         1 AFC       0.069700
     59 H15          6.7850    -1.6110    -2.7800 h1         1 AFC       0.069700
     60 H16          9.1680    -2.0430    -0.2020 hc         1 AFC       0.108700
     61 H17          9.6710    -4.2320     0.8710 hc         1 AFC       0.095700
     62 H18          8.9490    -6.2960     1.8600 hc         1 AFC       0.043700
     63 H19          7.2800    -6.8180     1.5900 hc         1 AFC       0.043700
     64 H20          7.6870    -5.8280     3.0160 hc         1 AFC       0.043700
     65 H21          5.5040    -4.9720     1.2110 hc         1 AFC       0.094700
     66 H22          5.0380    -2.8700     0.0730 hc         1 AFC       0.097700
     67 H23          6.7270     1.8890    -4.2460 hc         1 AFC       0.100200
     68 H24          6.8710     0.1730    -4.6640 hc         1 AFC       0.100200
     69 H25         11.0910     1.8910    -4.3670 h1         1 AFC       0.089700
     70 H26         12.4200    -0.2990    -4.7760 h1         1 AFC       0.083200
     71 H27         10.9170    -1.0150    -5.4030 h1         1 AFC       0.083200
     72 H28         13.4540    -1.7020    -3.3580 hc         1 AFC       0.103700
     73 H29         13.9480    -3.7910    -2.1250 hc         1 AFC       0.102700
     74 H30         13.1710    -5.6830    -0.7350 hc         1 AFC       0.043700
     75 H31         11.4880    -6.1660    -1.0340 hc         1 AFC       0.043700
     76 H32         11.8860    -5.1470     0.3640 hc         1 AFC       0.043700
     77 H33          9.7880    -4.2980    -1.3550 hc         1 AFC       0.094700
     78 H34          9.3300    -2.1840    -2.4500 hc         1 AFC       0.107700
     79 H35         10.9440     2.5110    -6.7890 hc         1 AFC       0.093200
     80 H36         11.0070     0.8010    -7.2410 hc         1 AFC       0.093200
     81 H37         12.8160     1.9690    -8.4480 ho         1 AFC       0.492000
@<TRIPOS>BOND
     1     1     2 1   
     2     1    44 1   
     3     2     3 1   
     4     2    12 1   
     5     2    45 1   
     6     3     4 1   
     7     3    46 1   
     8     3    47 1   
     9     4     5 1   
    10     5     6 1   
    11     5     6 1   
    12     5    11 1   
    13     6     7 1   
    14     6    48 1   
    15     7     8 1   
    16     7     8 1   
    17     7    49 1   
    18     8     9 1   
    19     8    10 1   
    20     9    50 1   
    21     9    51 1   
    22     9    52 1   
    23    10    11 1   
    24    10    11 1   
    25    10    53 1   
    26    11    54 1   
    27    12    13 1   
    28    12    55 1   
    29    12    56 1   
    30    13    14 1   
    31    13    14 1   
    32    13    15 1   
    33    15    16 1   
    34    16    17 1   
    35    16    26 1   
    36    16    57 1   
    37    17    18 1   
    38    17    58 1   
    39    17    59 1   
    40    18    19 1   
    41    19    20 1   
    42    19    20 1   
    43    19    25 1   
    44    20    21 1   
    45    20    60 1   
    46    21    22 1   
    47    21    22 1   
    48    21    61 1   
    49    22    23 1   
    50    22    24 1   
    51    23    62 1   
    52    23    63 1   
    53    23    64 1   
    54    24    25 1   
    55    24    25 1   
    56    24    65 1   
    57    25    66 1   
    58    26    27 1   
    59    26    67 1   
    60    26    68 1   
    61    27    28 1   
    62    27    28 1   
    63    27    29 1   
    64    29    30 1   
    65    30    31 1   
    66    30    40 1   
    67    30    69 1   
    68    31    32 1   
    69    31    70 1   
    70    31    71 1   
    71    32    33 1   
    72    33    34 1   
    73    33    34 1   
    74    33    39 1   
    75    34    35 1   
    76    34    72 1   
    77    35    36 1   
    78    35    36 1   
    79    35    73 1   
    80    36    37 1   
    81    36    38 1   
    82    37    74 1   
    83    37    75 1   
    84    37    76 1   
    85    38    39 1   
    86    38    39 1   
    87    38    77 1   
    88    39    78 1   
    89    40    41 1   
    90    40    79 1   
    91    40    80 1   
    92    41    42 1   
    93    41    42 1   
    94    41    43 1   
    95    43    81 1   
@<TRIPOS>SUBSTRUCTURE
     1 AFC         1 TEMP              0 ****  ****    0 ROOT
