@<TRIPOS>MOLECULE
AJS
   66    68     1     0     0
SMALL
abcg2


@<TRIPOS>ATOM
      1 O            6.0440    -3.5390     1.6910 oh         1 AJS      -0.669000
      2 C            6.1280    -2.5880     0.6260 c3         1 AJS       0.182300
      3 C1           5.7900    -3.3260    -0.7000 c3         1 AJS      -0.080400
      4 C2           6.4450    -2.8450    -2.0320 c3         1 AJS      -0.064700
      5 C3           7.9510    -3.0500    -2.1820 c3         1 AJS      -0.094100
      6 C4           5.9060    -3.6230    -3.2280 c3         1 AJS      -0.094100
      7 C5           7.5280    -2.0490     0.5990 c3         1 AJS      -0.161400
      8 C6           8.0750    -1.3440     1.7850 c3         1 AJS       0.583000
      9 O1           7.4090    -1.1740     2.7980 os         1 AJS      -0.511000
     10 O2           9.3600    -0.9210     1.6750 os         1 AJS      -0.445000
     11 C7          10.2860    -0.9810     0.5270 c3         1 AJS       0.177300
     12 C8           9.7800    -0.1490    -0.6750 c3         1 AJS      -0.101400
     13 C9           8.9240     1.0500    -0.2420 c3         1 AJS      -0.066700
     14 C10          9.7490     1.9960     0.6200 c3         1 AJS      -0.096100
     15 C11          8.3250     1.7580    -1.4470 c3         1 AJS      -0.096100
     16 C12         10.7020    -2.4060     0.1760 c3         1 AJS      -0.165400
     17 C13         11.1810    -3.1660     1.3830 c3         1 AJS       0.595000
     18 O3          11.4590    -2.6270     2.4470 os         1 AJS      -0.488000
     19 O4          11.2520    -4.5130     1.2630 os         1 AJS      -0.461000
     20 C14         10.8430    -5.2610     0.0920 c3         1 AJS       0.178300
     21 C15          9.3050    -5.4370     0.1640 c3         1 AJS      -0.095400
     22 C16          8.6990    -6.7480    -0.3640 c3         1 AJS      -0.068700
     23 C17          9.0020    -7.9430     0.5360 c3         1 AJS      -0.092600
     24 C18          7.1790    -6.6620    -0.4320 c3         1 AJS      -0.092600
     25 C19         11.5590    -6.5920     0.1470 c3         1 AJS      -0.148400
     26 C20         13.0490    -6.5570     0.0400 c3         1 AJS       0.590000
     27 O5          13.7190    -5.5580    -0.0540 os         1 AJS      -0.518000
     28 O6          13.5670    -7.8160     0.0340 oh         1 AJS      -0.615000
     29 H            6.3630    -3.0860     2.5010 ho         1 AJS       0.463000
     30 H1           5.4050    -1.7910     0.8130 h1         1 AJS       0.047700
     31 H2           5.9940    -4.3820    -0.5550 hc         1 AJS       0.060200
     32 H3           4.6980    -3.2950    -0.8140 hc         1 AJS       0.060200
     33 H4           6.2120    -1.7800    -2.1510 hc         1 AJS       0.039700
     34 H5           8.2090    -4.1080    -2.1650 hc         1 AJS       0.037200
     35 H6           8.5180    -2.5630    -1.4230 hc         1 AJS       0.037200
     36 H7           8.3500    -2.6240    -3.1060 hc         1 AJS       0.037200
     37 H8           6.1730    -4.6850    -3.1440 hc         1 AJS       0.037200
     38 H9           6.3760    -3.2490    -4.1470 hc         1 AJS       0.037200
     39 H10          4.8260    -3.5340    -3.3240 hc         1 AJS       0.037200
     40 H11          7.5640    -1.3450    -0.2250 hc         1 AJS       0.088200
     41 H12          8.1370    -2.9370     0.5170 hc         1 AJS       0.088200
     42 H13         11.1980    -0.4820     0.8770 h1         1 AJS       0.114700
     43 H14         10.6350     0.1820    -1.2800 hc         1 AJS       0.054200
     44 H15          9.2020    -0.7530    -1.3720 hc         1 AJS       0.054200
     45 H16          8.0670     0.7160     0.3510 hc         1 AJS       0.060700
     46 H17         10.5950     2.3870     0.0490 hc         1 AJS       0.038700
     47 H18         10.1490     1.4900     1.5040 hc         1 AJS       0.038700
     48 H19          9.1350     2.8250     0.9760 hc         1 AJS       0.038700
     49 H20          9.1070     2.1530    -2.0990 hc         1 AJS       0.038700
     50 H21          7.6880     2.5850    -1.1170 hc         1 AJS       0.038700
     51 H22          7.6990     1.0700    -2.0280 hc         1 AJS       0.038700
     52 H23         11.4290    -2.4410    -0.6400 hc         1 AJS       0.098200
     53 H24          9.8380    -2.9290    -0.1710 hc         1 AJS       0.098200
     54 H25         11.1370    -4.7320    -0.8240 h1         1 AJS       0.076700
     55 H26          8.9280    -5.2060     1.1700 hc         1 AJS       0.064200
     56 H27          8.8880    -4.6490    -0.4480 hc         1 AJS       0.064200
     57 H28          9.0620    -6.9130    -1.3860 hc         1 AJS       0.042700
     58 H29          8.8150    -7.6800     1.5820 hc         1 AJS       0.038533
     59 H30         10.0180    -8.3140     0.4570 hc         1 AJS       0.038533
     60 H31          8.4000    -8.8060     0.2540 hc         1 AJS       0.038533
     61 H32          6.7550    -6.3940     0.5430 hc         1 AJS       0.038533
     62 H33          6.7500    -7.6200    -0.7400 hc         1 AJS       0.038533
     63 H34          6.8780    -5.9420    -1.1880 hc         1 AJS       0.038533
     64 H35         11.2280    -7.1950    -0.7060 hc         1 AJS       0.095200
     65 H36         11.3520    -7.0430     1.1230 hc         1 AJS       0.095200
     66 H37         12.9170    -8.5430     0.1100 ho         1 AJS       0.469000
@<TRIPOS>BOND
     1     1     2 1   
     2     1    29 1   
     3     2     3 1   
     4     2     7 1   
     5     2    30 1   
     6     3     4 1   
     7     3    31 1   
     8     3    32 1   
     9     4     5 1   
    10     4     6 1   
    11     4    33 1   
    12     5    34 1   
    13     5    35 1   
    14     5    36 1   
    15     6    37 1   
    16     6    38 1   
    17     6    39 1   
    18     7     8 1   
    19     7    40 1   
    20     7    41 1   
    21     8     9 1   
    22     8     9 1   
    23     8    10 1   
    24    10    11 1   
    25    11    12 1   
    26    11    16 1   
    27    11    42 1   
    28    12    13 1   
    29    12    43 1   
    30    12    44 1   
    31    13    14 1   
    32    13    15 1   
    33    13    45 1   
    34    14    46 1   
    35    14    47 1   
    36    14    48 1   
    37    15    49 1   
    38    15    50 1   
    39    15    51 1   
    40    16    17 1   
    41    16    52 1   
    42    16    53 1   
    43    17    18 1   
    44    17    18 1   
    45    17    19 1   
    46    19    20 1   
    47    20    21 1   
    48    20    25 1   
    49    20    54 1   
    50    21    22 1   
    51    21    55 1   
    52    21    56 1   
    53    22    23 1   
    54    22    24 1   
    55    22    57 1   
    56    23    58 1   
    57    23    59 1   
    58    23    60 1   
    59    24    61 1   
    60    24    62 1   
    61    24    63 1   
    62    25    26 1   
    63    25    64 1   
    64    25    65 1   
    65    26    27 1   
    66    26    27 1   
    67    26    28 1   
    68    28    66 1   
@<TRIPOS>SUBSTRUCTURE
     1 AJS         1 TEMP              0 ****  ****    0 ROOT
