@<TRIPOS>MOLECULE
AEE
  105   119     1     0     0
SMALL
abcg2


@<TRIPOS>ATOM
      1 O           11.7000    -3.6800     2.9360 oh         1 AEE      -0.669000
      2 C           12.7730    -3.0970     2.1900 c3         1 AEE       0.182300
      3 C1          13.6800    -2.3900     3.1980 c3         1 AEE      -0.076400
      4 C2          14.6360    -3.4100     3.7680 c3         1 AEE      -0.078400
      5 C3          15.5750    -2.7630     4.7640 c3         1 AEE      -0.079400
      6 C4          16.5150    -3.8320     5.2690 c3         1 AEE      -0.076400
      7 C5          17.4930    -3.2730     6.2850 c3         1 AEE      -0.045400
      8 C6          18.4330    -4.3220     6.8180 c3         1 AEE      -0.069000
      9 C7          18.0650    -5.6740     6.9100 c3         1 AEE      -0.088700
     10 C8          18.8860    -6.5940     7.5490 c3         1 AEE      -0.089200
     11 C9          20.1230    -6.1910     8.0350 c3         1 AEE      -0.094700
     12 C10         20.5190    -4.8590     7.9190 c3         1 AEE      -0.089200
     13 C11         19.6730    -3.9240     7.3260 c3         1 AEE      -0.088700
     14 C12         12.2130    -2.0620     1.2540 c3         1 AEE      -0.167400
     15 C13         11.2850    -2.6000     0.2130 c3         1 AEE       0.596000
     16 O1          10.9080    -3.7670     0.2280 os         1 AEE      -0.518000
     17 O2          10.7330    -1.6940    -0.6270 os         1 AEE      -0.458000
     18 C14         11.2990    -0.3890    -0.9430 c3         1 AEE       0.180300
     19 C15         10.5450     0.6710    -0.1070 c3         1 AEE      -0.094400
     20 C16         11.3450     1.0020     1.1210 c3         1 AEE      -0.086400
     21 C17         10.6800     1.9590     2.0640 c3         1 AEE      -0.077400
     22 C18         11.5660     2.0140     3.2960 c3         1 AEE      -0.077400
     23 C19         10.9900     2.9820     4.3010 c3         1 AEE      -0.044400
     24 C20         11.8400     3.1200     5.5310 c3         1 AEE      -0.070000
     25 C21         12.6280     2.0680     6.0230 c3         1 AEE      -0.088700
     26 C22         13.2710     2.1800     7.2490 c3         1 AEE      -0.089200
     27 C23         13.1980     3.3730     7.9580 c3         1 AEE      -0.093700
     28 C24         12.4480     4.4390     7.4620 c3         1 AEE      -0.089200
     29 C25         11.7610     4.3090     6.2590 c3         1 AEE      -0.087700
     30 C26         10.9640    -0.1140    -2.3980 c3         1 AEE      -0.148400
     31 C27         11.5320    -1.0860    -3.4000 c3         1 AEE       0.599000
     32 O3          12.2200    -2.0390    -3.0500 os         1 AEE      -0.515000
     33 O4          11.1730    -0.9370    -4.7090 os         1 AEE      -0.455000
     34 C28         10.7650     0.3020    -5.3660 c3         1 AEE       0.177300
     35 C29          9.2310     0.3210    -5.4880 c3         1 AEE      -0.093400
     36 C30          8.6070     0.8270    -4.2150 c3         1 AEE      -0.082400
     37 C31          7.1080     0.8600    -4.1830 c3         1 AEE      -0.077400
     38 C32          6.6980     1.3170    -2.7900 c3         1 AEE      -0.077400
     39 C33          5.1890     1.3290    -2.6840 c3         1 AEE      -0.042400
     40 C34          4.6900     1.8100    -1.3510 c3         1 AEE      -0.073000
     41 C35          5.4130     1.6170    -0.1640 c3         1 AEE      -0.086700
     42 C36          4.8470     1.9280     1.0670 c3         1 AEE      -0.088200
     43 C37          3.5860     2.5100     1.1180 c3         1 AEE      -0.092700
     44 C38          2.8720     2.7400    -0.0570 c3         1 AEE      -0.088200
     45 C39          3.4150     2.3800    -1.2860 c3         1 AEE      -0.088700
     46 C40         11.3530     0.3400    -6.7920 c3         1 AEE      -0.149400
     47 C41         12.8630     0.3870    -6.7530 c3         1 AEE       0.588000
     48 O5          13.5250     0.4030    -5.7360 os         1 AEE      -0.512000
     49 O6          13.4350     0.4660    -7.9790 oh         1 AEE      -0.615000
     50 H           11.0770    -4.0540     2.2780 ho         1 AEE       0.461000
     51 H1          13.2920    -3.8840     1.6380 h1         1 AEE       0.048700
     52 H2          14.2580    -1.5800     2.7340 hc         1 AEE       0.051700
     53 H3          13.0930    -1.9410     4.0130 hc         1 AEE       0.051700
     54 H4          15.2170    -3.8540     2.9490 hc         1 AEE       0.049200
     55 H5          14.0730    -4.2230     4.2440 hc         1 AEE       0.049200
     56 H6          15.0060    -2.3370     5.5980 hc         1 AEE       0.039200
     57 H7          16.1390    -1.9510     4.2920 hc         1 AEE       0.039200
     58 H8          17.0650    -4.2830     4.4320 hc         1 AEE       0.045700
     59 H9          15.8990    -4.6200     5.7170 hc         1 AEE       0.045700
     60 H10         16.9430    -2.8450     7.1320 hc         1 AEE       0.047200
     61 H11         18.0640    -2.4580     5.8210 hc         1 AEE       0.047200
     62 H12         17.1310    -6.0420     6.4960 hc         1 AEE       0.092700
     63 H13         18.5450    -7.6180     7.6730 hc         1 AEE       0.090200
     64 H14         20.7770    -6.9180     8.5040 hc         1 AEE       0.090700
     65 H15         21.4810    -4.5420     8.3110 hc         1 AEE       0.090200
     66 H16         19.9810    -2.8830     7.2640 hc         1 AEE       0.090700
     67 H17         13.0200    -1.4780     0.8040 hc         1 AEE       0.098700
     68 H18         11.5740    -1.5070     1.9250 hc         1 AEE       0.098700
     69 H19         12.3830    -0.3710    -0.8180 h1         1 AEE       0.075700
     70 H20         10.3940     1.6040    -0.6630 hc         1 AEE       0.060200
     71 H21          9.5510     0.3020     0.1820 hc         1 AEE       0.060200
     72 H22         12.3660     1.3000     0.8620 hc         1 AEE       0.049700
     73 H23         11.4260     0.1270     1.7230 hc         1 AEE       0.049700
     74 H24          9.6930     1.5710     2.3490 hc         1 AEE       0.041700
     75 H25         10.5560     2.9390     1.6010 hc         1 AEE       0.041700
     76 H26         12.5890     2.3040     3.0220 hc         1 AEE       0.047700
     77 H27         11.6290     1.0050     3.7270 hc         1 AEE       0.047700
     78 H28          9.9920     2.6450     4.6050 hc         1 AEE       0.047700
     79 H29         10.8740     3.9570     3.8110 hc         1 AEE       0.047700
     80 H30         12.7500     1.1370     5.4750 hc         1 AEE       0.090700
     81 H31         13.8120     1.3280     7.6500 hc         1 AEE       0.090700
     82 H32         13.7260     3.4710     8.9010 hc         1 AEE       0.090700
     83 H33         12.3790     5.3660     8.0220 hc         1 AEE       0.090700
     84 H34         11.1550     5.1350     5.8920 hc         1 AEE       0.093700
     85 H35         11.2210     0.9130    -2.6660 hc         1 AEE       0.109700
     86 H36          9.9040    -0.2800    -2.3510 hc         1 AEE       0.109700
     87 H37         11.1440     1.1660    -4.8090 h1         1 AEE       0.077700
     88 H38          8.8960     0.9580    -6.3110 hc         1 AEE       0.058700
     89 H39          8.8660    -0.6990    -5.6670 hc         1 AEE       0.058700
     90 H40          9.0500     1.7780    -3.8920 hc         1 AEE       0.047700
     91 H41          8.7900     0.0660    -3.4880 hc         1 AEE       0.047700
     92 H42          6.7360    -0.1600    -4.3430 hc         1 AEE       0.041200
     93 H43          6.7080     1.5110    -4.9600 hc         1 AEE       0.041200
     94 H44          7.1080     2.3110    -2.5690 hc         1 AEE       0.048700
     95 H45          7.1290     0.6280    -2.0490 hc         1 AEE       0.048700
     96 H46          4.8010     0.3160    -2.8500 hc         1 AEE       0.046700
     97 H47          4.7930     1.9670    -3.4840 hc         1 AEE       0.046700
     98 H48          6.4190     1.2080    -0.1670 hc         1 AEE       0.092700
     99 H49          5.3900     1.6990     1.9790 hc         1 AEE       0.091700
    100 H50          3.1580     2.7810     2.0780 hc         1 AEE       0.091700
    101 H51          1.8800     3.1790    -0.0160 hc         1 AEE       0.091700
    102 H52          2.8390     2.5360    -2.1960 hc         1 AEE       0.089700
    103 H53         11.0060     1.2530    -7.2960 hc         1 AEE       0.092700
    104 H54         11.0290    -0.5320    -7.3700 hc         1 AEE       0.092700
    105 H55         12.8310     0.4710    -8.7440 ho         1 AEE       0.468000
@<TRIPOS>BOND
     1     1     2 1   
     2     1    50 1   
     3     2     3 1   
     4     2    14 1   
     5     2    51 1   
     6     3     4 1   
     7     3    52 1   
     8     3    53 1   
     9     4     5 1   
    10     4    54 1   
    11     4    55 1   
    12     5     6 1   
    13     5    56 1   
    14     5    57 1   
    15     6     7 1   
    16     6    58 1   
    17     6    59 1   
    18     7     8 1   
    19     7    60 1   
    20     7    61 1   
    21     8     9 1   
    22     8     9 1   
    23     8    13 1   
    24     9    10 1   
    25     9    62 1   
    26    10    11 1   
    27    10    11 1   
    28    10    63 1   
    29    11    12 1   
    30    11    64 1   
    31    12    13 1   
    32    12    13 1   
    33    12    65 1   
    34    13    66 1   
    35    14    15 1   
    36    14    67 1   
    37    14    68 1   
    38    15    16 1   
    39    15    16 1   
    40    15    17 1   
    41    17    18 1   
    42    18    19 1   
    43    18    30 1   
    44    18    69 1   
    45    19    20 1   
    46    19    70 1   
    47    19    71 1   
    48    20    21 1   
    49    20    72 1   
    50    20    73 1   
    51    21    22 1   
    52    21    74 1   
    53    21    75 1   
    54    22    23 1   
    55    22    76 1   
    56    22    77 1   
    57    23    24 1   
    58    23    78 1   
    59    23    79 1   
    60    24    25 1   
    61    24    25 1   
    62    24    29 1   
    63    25    26 1   
    64    25    80 1   
    65    26    27 1   
    66    26    27 1   
    67    26    81 1   
    68    27    28 1   
    69    27    82 1   
    70    28    29 1   
    71    28    29 1   
    72    28    83 1   
    73    29    84 1   
    74    30    31 1   
    75    30    85 1   
    76    30    86 1   
    77    31    32 1   
    78    31    32 1   
    79    31    33 1   
    80    33    34 1   
    81    34    35 1   
    82    34    46 1   
    83    34    87 1   
    84    35    36 1   
    85    35    88 1   
    86    35    89 1   
    87    36    37 1   
    88    36    90 1   
    89    36    91 1   
    90    37    38 1   
    91    37    92 1   
    92    37    93 1   
    93    38    39 1   
    94    38    94 1   
    95    38    95 1   
    96    39    40 1   
    97    39    96 1   
    98    39    97 1   
    99    40    41 1   
   100    40    41 1   
   101    40    45 1   
   102    41    42 1   
   103    41    98 1   
   104    42    43 1   
   105    42    43 1   
   106    42    99 1   
   107    43    44 1   
   108    43   100 1   
   109    44    45 1   
   110    44    45 1   
   111    44   101 1   
   112    45   102 1   
   113    46    47 1   
   114    46   103 1   
   115    46   104 1   
   116    47    48 1   
   117    47    48 1   
   118    47    49 1   
   119    49   105 1   
@<TRIPOS>SUBSTRUCTURE
     1 AEE         1 TEMP              0 ****  ****    0 ROOT
