@<TRIPOS>MOLECULE
AEY
  108   122     1     0     0
SMALL
abcg2


@<TRIPOS>ATOM
      1 O           13.4660     2.4920    -2.0050 oh         1 AEY      -0.669000
      2 C           14.5000     2.3240    -1.0300 c3         1 AEY       0.183300
      3 C1          15.8290     2.4770    -1.7690 c3         1 AEY      -0.080400
      4 C2          16.9680     2.7160    -0.7890 c3         1 AEY      -0.084400
      5 C3          18.2930     2.8550    -1.5190 c3         1 AEY      -0.075400
      6 C4          19.4230     3.0950    -0.5260 c3         1 AEY      -0.086400
      7 C5          20.7530     3.2240    -1.2550 c3         1 AEY       0.152600
      8 O1          21.7900     3.3390    -0.2850 os         1 AEY      -0.405000
      9 C6          23.0300     3.6560    -0.7690 c3         1 AEY       0.178000
     10 C7          24.1120     3.1800    -0.0240 c3         1 AEY      -0.118700
     11 C8          25.4130     3.5840    -0.3310 c3         1 AEY      -0.057700
     12 C9          25.6450     4.4100    -1.4290 c3         1 AEY      -0.126700
     13 C10         24.5730     4.8590    -2.1960 c3         1 AEY      -0.057700
     14 C11         23.2680     4.4910    -1.8620 c3         1 AEY      -0.165700
     15 C12         14.3800     0.9330    -0.4000 c3         1 AEY      -0.168400
     16 C13         13.0460     0.7890     0.2920 c3         1 AEY       0.594000
     17 O2          12.2440     1.7220     0.3360 os         1 AEY      -0.514000
     18 O3          12.6980    -0.3990     0.8230 os         1 AEY      -0.458000
     19 C14         13.4440    -1.6460     0.8380 c3         1 AEY       0.177300
     20 C15         13.8450    -2.0310    -0.5990 c3         1 AEY      -0.089400
     21 C16         13.3840    -3.3970    -1.0640 c3         1 AEY      -0.080400
     22 C17         13.7430    -3.6350    -2.5100 c3         1 AEY      -0.077400
     23 C18         13.1800    -4.9860    -2.9160 c3         1 AEY      -0.086400
     24 C19         13.5220    -5.2630    -4.3640 c3         1 AEY       0.152600
     25 O4          12.9020    -6.4870    -4.7360 os         1 AEY      -0.405000
     26 C20         13.2710    -6.9810    -5.9570 c3         1 AEY       0.177000
     27 C21         12.3060    -7.7450    -6.6140 c3         1 AEY      -0.117700
     28 C22         12.6330    -8.4350    -7.7820 c3         1 AEY      -0.057700
     29 C23         13.9060    -8.3050    -8.3350 c3         1 AEY      -0.125700
     30 C24         14.8600    -7.5140    -7.7010 c3         1 AEY      -0.057700
     31 C25         14.5470    -6.8600    -6.5090 c3         1 AEY      -0.165700
     32 C26         12.4970    -2.6930     1.4390 c3         1 AEY      -0.140400
     33 C27         12.1150    -2.4770     2.8770 c3         1 AEY       0.598000
     34 O5          12.5050    -1.5180     3.5330 os         1 AEY      -0.515000
     35 O6          11.2790    -3.4050     3.4330 os         1 AEY      -0.451000
     36 C28         10.8430    -4.6220     2.7670 c3         1 AEY       0.174300
     37 C29          9.3040    -4.6040     2.7670 c3         1 AEY      -0.108400
     38 C30          8.7630    -4.9670     1.3840 c3         1 AEY      -0.079400
     39 C31          7.2400    -4.9700     1.3710 c3         1 AEY      -0.078400
     40 C32          6.7100    -5.3350    -0.0120 c3         1 AEY      -0.086400
     41 C33          5.1860    -5.3490    -0.0160 c3         1 AEY       0.152600
     42 O7           4.7400    -5.8010    -1.2930 os         1 AEY      -0.406000
     43 C34          3.3960    -5.6930    -1.5310 c3         1 AEY       0.176000
     44 C35          2.8590    -6.6320    -2.4140 c3         1 AEY      -0.117700
     45 C36          1.5400    -6.5120    -2.8580 c3         1 AEY      -0.057700
     46 C37          0.7300    -5.4920    -2.3640 c3         1 AEY      -0.124700
     47 C38          1.2500    -4.5730    -1.4570 c3         1 AEY      -0.057700
     48 C39          2.5830    -4.6670    -1.0480 c3         1 AEY      -0.164700
     49 C40         11.3910    -5.8470     3.5220 c3         1 AEY      -0.135400
     50 C41         12.9020    -5.8750     3.5070 c3         1 AEY       0.586000
     51 O8          13.6180    -5.0300     2.9770 os         1 AEY      -0.499000
     52 O9          13.4530    -6.9410     4.1150 oh         1 AEY      -0.616000
     53 H           12.6230     2.5100    -1.5020 ho         1 AEY       0.461000
     54 H1          14.3890     3.1120    -0.2770 h1         1 AEY       0.049700
     55 H2          16.0300     1.5840    -2.3770 hc         1 AEY       0.057700
     56 H3          15.7660     3.3080    -2.4830 hc         1 AEY       0.057700
     57 H4          17.0370     1.8890    -0.0740 hc         1 AEY       0.049700
     58 H5          16.7630     3.6260    -0.2130 hc         1 AEY       0.049700
     59 H6          18.2360     3.6860    -2.2340 hc         1 AEY       0.041700
     60 H7          18.4940     1.9440    -2.0960 hc         1 AEY       0.041700
     61 H8          19.4730     2.2780     0.2040 hc         1 AEY       0.059700
     62 H9          19.2280     4.0070     0.0540 hc         1 AEY       0.059700
     63 H10         20.6830     4.1000    -1.9080 h1         1 AEY       0.038700
     64 H11         20.9390     2.3290    -1.8590 h1         1 AEY       0.038700
     65 H12         23.9410     2.4980     0.8050 hc         1 AEY       0.107700
     66 H13         26.2420     3.2730     0.2980 hc         1 AEY       0.092200
     67 H14         26.6580     4.7100    -1.6830 hc         1 AEY       0.092700
     68 H15         24.7450     5.5260    -3.0370 hc         1 AEY       0.092200
     69 H16         22.4610     4.9050    -2.4540 hc         1 AEY       0.096700
     70 H17         15.1830     0.7340     0.3130 hc         1 AEY       0.100200
     71 H18         14.4570     0.2460    -1.2400 hc         1 AEY       0.100200
     72 H19         14.3300    -1.5250     1.4750 h1         1 AEY       0.076700
     73 H20         13.4030    -1.3300    -1.3110 hc         1 AEY       0.055700
     74 H21         14.9380    -1.9630    -0.6910 hc         1 AEY       0.055700
     75 H22         12.2920    -3.4540    -0.9870 hc         1 AEY       0.052200
     76 H23         13.8270    -4.1840    -0.4460 hc         1 AEY       0.052200
     77 H24         14.8310    -3.6060    -2.6330 hc         1 AEY       0.042700
     78 H25         13.3150    -2.8450    -3.1390 hc         1 AEY       0.042700
     79 H26         12.0930    -5.0160    -2.7680 hc         1 AEY       0.058700
     80 H27         13.5910    -5.7760    -2.2720 hc         1 AEY       0.058700
     81 H28         14.6130    -5.2950    -4.4340 h1         1 AEY       0.039200
     82 H29         13.1320    -4.4600    -5.0000 h1         1 AEY       0.039200
     83 H30         11.2980    -7.8100    -6.2120 hc         1 AEY       0.108700
     84 H31         11.9030    -9.0900    -8.2480 hc         1 AEY       0.092700
     85 H32         14.1560    -8.8250    -9.2550 hc         1 AEY       0.092700
     86 H33         15.8610    -7.4290    -8.1130 hc         1 AEY       0.092700
     87 H34         15.3330    -6.2960    -6.0230 hc         1 AEY       0.095700
     88 H35         13.0020    -3.6540     1.3780 hc         1 AEY       0.100700
     89 H36         11.5670    -2.7130     0.8590 hc         1 AEY       0.100700
     90 H37         11.1970    -4.6710     1.7350 h1         1 AEY       0.079700
     91 H38          8.9050    -5.3100     3.5060 hc         1 AEY       0.062200
     92 H39          8.9250    -3.6130     3.0500 hc         1 AEY       0.062200
     93 H40          9.1370    -5.9530     1.0870 hc         1 AEY       0.045200
     94 H41          9.1310    -4.2420     0.6470 hc         1 AEY       0.045200
     95 H42          6.8650    -3.9820     1.6650 hc         1 AEY       0.046200
     96 H43          6.8670    -5.6900     2.1090 hc         1 AEY       0.046200
     97 H44          7.0940    -6.3130    -0.3260 hc         1 AEY       0.058700
     98 H45          7.0730    -4.6140    -0.7580 hc         1 AEY       0.058700
     99 H46          4.8480    -4.3350     0.2170 h1         1 AEY       0.040700
    100 H47          4.8160    -6.0440     0.7470 h1         1 AEY       0.040700
    101 H48          3.4720    -7.4580    -2.7680 hc         1 AEY       0.108700
    102 H49          1.1520    -7.2000    -3.6040 hc         1 AEY       0.093700
    103 H50         -0.3030    -5.4070    -2.6920 hc         1 AEY       0.093700
    104 H51          0.6310    -3.7590    -1.0900 hc         1 AEY       0.093700
    105 H52          2.9590    -3.9000    -0.3820 hc         1 AEY       0.096700
    106 H53         11.0250    -6.7590     3.0320 hc         1 AEY       0.093200
    107 H54         11.0510    -5.8340     4.5630 hc         1 AEY       0.093200
    108 H55         12.8340    -7.5730     4.5230 ho         1 AEY       0.467000
@<TRIPOS>BOND
     1     1     2 1   
     2     1    53 1   
     3     2     3 1   
     4     2    15 1   
     5     2    54 1   
     6     3     4 1   
     7     3    55 1   
     8     3    56 1   
     9     4     5 1   
    10     4    57 1   
    11     4    58 1   
    12     5     6 1   
    13     5    59 1   
    14     5    60 1   
    15     6     7 1   
    16     6    61 1   
    17     6    62 1   
    18     7     8 1   
    19     7    63 1   
    20     7    64 1   
    21     8     9 1   
    22     9    10 1   
    23     9    10 1   
    24     9    14 1   
    25    10    11 1   
    26    10    65 1   
    27    11    12 1   
    28    11    12 1   
    29    11    66 1   
    30    12    13 1   
    31    12    67 1   
    32    13    14 1   
    33    13    14 1   
    34    13    68 1   
    35    14    69 1   
    36    15    16 1   
    37    15    70 1   
    38    15    71 1   
    39    16    17 1   
    40    16    17 1   
    41    16    18 1   
    42    18    19 1   
    43    19    20 1   
    44    19    32 1   
    45    19    72 1   
    46    20    21 1   
    47    20    73 1   
    48    20    74 1   
    49    21    22 1   
    50    21    75 1   
    51    21    76 1   
    52    22    23 1   
    53    22    77 1   
    54    22    78 1   
    55    23    24 1   
    56    23    79 1   
    57    23    80 1   
    58    24    25 1   
    59    24    81 1   
    60    24    82 1   
    61    25    26 1   
    62    26    27 1   
    63    26    27 1   
    64    26    31 1   
    65    27    28 1   
    66    27    83 1   
    67    28    29 1   
    68    28    29 1   
    69    28    84 1   
    70    29    30 1   
    71    29    85 1   
    72    30    31 1   
    73    30    31 1   
    74    30    86 1   
    75    31    87 1   
    76    32    33 1   
    77    32    88 1   
    78    32    89 1   
    79    33    34 1   
    80    33    34 1   
    81    33    35 1   
    82    35    36 1   
    83    36    37 1   
    84    36    49 1   
    85    36    90 1   
    86    37    38 1   
    87    37    91 1   
    88    37    92 1   
    89    38    39 1   
    90    38    93 1   
    91    38    94 1   
    92    39    40 1   
    93    39    95 1   
    94    39    96 1   
    95    40    41 1   
    96    40    97 1   
    97    40    98 1   
    98    41    42 1   
    99    41    99 1   
   100    41   100 1   
   101    42    43 1   
   102    43    44 1   
   103    43    44 1   
   104    43    48 1   
   105    44    45 1   
   106    44   101 1   
   107    45    46 1   
   108    45    46 1   
   109    45   102 1   
   110    46    47 1   
   111    46   103 1   
   112    47    48 1   
   113    47    48 1   
   114    47   104 1   
   115    48   105 1   
   116    49    50 1   
   117    49   106 1   
   118    49   107 1   
   119    50    51 1   
   120    50    51 1   
   121    50    52 1   
   122    52   108 1   
@<TRIPOS>SUBSTRUCTURE
     1 AEY         1 TEMP              0 ****  ****    0 ROOT
