@<TRIPOS>MOLECULE
AGE
   90   104     1     0     0
SMALL
abcg2


@<TRIPOS>ATOM
      1 O           16.6350     1.5850     1.7160 oh         1 AGE      -0.670000
      2 C           15.9230     1.0170     2.8180 c3         1 AGE       0.184300
      3 C1          16.9350     0.6300     3.9030 c3         1 AGE      -0.080400
      4 C2          16.4920     1.1220     5.2810 c3         1 AGE      -0.091400
      5 C3          17.5120     0.7410     6.3520 c3         1 AGE       0.153600
      6 O1          17.0500     1.2290     7.6170 os         1 AGE      -0.400000
      7 C4          17.8930     0.9830     8.6680 c3         1 AGE       0.167000
      8 C5          19.2770     1.1720     8.6200 c3         1 AGE      -0.142700
      9 C6          20.0550     0.9400     9.7580 c3         1 AGE      -0.090700
     10 C7          19.4440     0.5390    10.9390 c3         1 AGE       0.142000
     11 F           20.1930     0.3210    12.0290 f          1 AGE      -0.199000
     12 C8          18.0670     0.3700    11.0080 c3         1 AGE      -0.093700
     13 C9          17.2890     0.5990     9.8700 c3         1 AGE      -0.094700
     14 C10         15.1960    -0.2190     2.3160 c3         1 AGE      -0.167400
     15 C11         14.1250     0.1750     1.3160 c3         1 AGE       0.595000
     16 O2          13.9770     1.3320     0.9250 os         1 AGE      -0.512000
     17 O3          13.3820    -0.8150     0.7640 os         1 AGE      -0.457000
     18 C12         13.4810    -2.1680     1.2130 c3         1 AGE       0.181300
     19 C13         13.4910    -3.0770    -0.0310 c3         1 AGE      -0.089400
     20 C14         12.1820    -3.0220    -0.8240 c3         1 AGE      -0.088400
     21 C15         12.2050    -3.9340    -2.0390 c3         1 AGE       0.153600
     22 O4          10.9390    -3.7980    -2.6950 os         1 AGE      -0.401000
     23 C16         10.7910    -4.5810    -3.8060 c3         1 AGE       0.165000
     24 C17         11.1490    -5.9300    -3.8550 c3         1 AGE      -0.141700
     25 C18         10.9270    -6.6680    -5.0190 c3         1 AGE      -0.090700
     26 C19         10.3310    -6.0580    -6.1170 c3         1 AGE       0.144000
     27 F1          10.1170    -6.7710    -7.2300 f          1 AGE      -0.198000
     28 C20          9.9480    -4.7230    -6.0710 c3         1 AGE      -0.092700
     29 C21         10.1720    -3.9840    -4.9080 c3         1 AGE      -0.093700
     30 C22         12.3010    -2.4960     2.1000 c3         1 AGE      -0.147400
     31 C23         12.1140    -1.6280     3.3280 c3         1 AGE       0.600000
     32 O5          12.6830    -0.5640     3.5470 os         1 AGE      -0.515000
     33 O6          11.1550    -2.0350     4.1880 os         1 AGE      -0.455000
     34 C24         10.6900    -3.3830     4.1630 c3         1 AGE       0.181300
     35 C25          9.1650    -3.2870     4.1800 c3         1 AGE      -0.096400
     36 C26          8.5690    -4.3810     5.0300 c3         1 AGE      -0.088400
     37 C27          7.0640    -4.3660     5.0110 c3         1 AGE       0.153600
     38 O7           6.6620    -5.4070     5.9020 os         1 AGE      -0.404000
     39 C28          5.3100    -5.5580     5.9940 c3         1 AGE       0.161000
     40 C29          4.4640    -5.5640     4.8840 c3         1 AGE      -0.140700
     41 C30          3.0960    -5.7600     5.0590 c3         1 AGE      -0.090700
     42 C31          2.5920    -5.9690     6.3370 c3         1 AGE       0.147000
     43 F2           1.2780    -6.1640     6.4990 f          1 AGE      -0.196000
     44 C32          3.4310    -5.9890     7.4450 c3         1 AGE      -0.092700
     45 C33          4.7990    -5.7880     7.2720 c3         1 AGE      -0.091700
     46 C34         11.3650    -4.1690     5.2950 c3         1 AGE      -0.150400
     47 C35         12.8790    -4.1800     5.2410 c3         1 AGE       0.589000
     48 O8          13.5740    -3.6130     4.4140 os         1 AGE      -0.512000
     49 O9          13.4390    -4.9460     6.2010 oh         1 AGE      -0.612000
     50 H           15.9430     1.8820     1.0860 ho         1 AGE       0.464000
     51 H1          15.2170     1.7700     3.1890 h1         1 AGE       0.052700
     52 H2          17.0550    -0.4610     3.9460 hc         1 AGE       0.058700
     53 H3          17.9220     1.0400     3.6630 hc         1 AGE       0.058700
     54 H4          15.5070     0.7140     5.5410 hc         1 AGE       0.065200
     55 H5          16.3740     2.2130     5.2650 hc         1 AGE       0.065200
     56 H6          18.4740     1.1840     6.0790 h1         1 AGE       0.040200
     57 H7          17.6110    -0.3500     6.3980 h1         1 AGE       0.040200
     58 H8          19.7680     1.5280     7.7210 hc         1 AGE       0.102700
     59 H9          21.1310     1.0810     9.7310 hc         1 AGE       0.108700
     60 H10         17.6090     0.0660    11.9440 hc         1 AGE       0.110700
     61 H11         16.2110     0.4740     9.9190 hc         1 AGE       0.115700
     62 H12         14.7910    -0.7340     3.1870 hc         1 AGE       0.099700
     63 H13         15.9040    -0.8880     1.8170 hc         1 AGE       0.099700
     64 H14         14.4070    -2.3700     1.7560 h1         1 AGE       0.074700
     65 H15         14.3160    -2.7680    -0.6850 hc         1 AGE       0.057200
     66 H16         13.6910    -4.1110     0.2790 hc         1 AGE       0.057200
     67 H17         11.9590    -1.9920    -1.1260 hc         1 AGE       0.068700
     68 H18         11.3370    -3.3460    -0.2060 hc         1 AGE       0.068700
     69 H19         12.3630    -4.9590    -1.6880 h1         1 AGE       0.041200
     70 H20         13.0120    -3.6390    -2.7160 h1         1 AGE       0.041200
     71 H21         11.5750    -6.4340    -2.9950 hc         1 AGE       0.101700
     72 H22         11.2060    -7.7150    -5.0720 hc         1 AGE       0.109700
     73 H23          9.4770    -4.2690    -6.9370 hc         1 AGE       0.111700
     74 H24          9.8720    -2.9400    -4.8640 hc         1 AGE       0.114700
     75 H25         12.4750    -3.5430     2.3620 hc         1 AGE       0.111200
     76 H26         11.3520    -2.4060     1.5660 hc         1 AGE       0.111200
     77 H27         10.8970    -3.9080     3.2330 h1         1 AGE       0.079700
     78 H28          8.8200    -2.2960     4.5060 hc         1 AGE       0.065700
     79 H29          8.8080    -3.3790     3.1420 hc         1 AGE       0.065700
     80 H30          8.9040    -4.2710     6.0670 hc         1 AGE       0.060200
     81 H31          8.9230    -5.3590     4.6800 hc         1 AGE       0.060200
     82 H32          6.7350    -4.5450     3.9830 h1         1 AGE       0.043700
     83 H33          6.6950    -3.3980     5.3680 h1         1 AGE       0.043700
     84 H34          4.8470    -5.4440     3.8770 hc         1 AGE       0.102700
     85 H35          2.4270    -5.7610     4.2060 hc         1 AGE       0.111700
     86 H36          3.0150    -6.1620     8.4320 hc         1 AGE       0.113700
     87 H37          5.4640    -5.8020     8.1320 hc         1 AGE       0.115700
     88 H38         11.0540    -5.2150     5.2080 hc         1 AGE       0.095200
     89 H39         11.0660    -3.7600     6.2640 hc         1 AGE       0.095200
     90 H40         12.8150    -5.3790     6.8120 ho         1 AGE       0.469000
@<TRIPOS>BOND
     1     1     2 1   
     2     1    50 1   
     3     2     3 1   
     4     2    14 1   
     5     2    51 1   
     6     3     4 1   
     7     3    52 1   
     8     3    53 1   
     9     4     5 1   
    10     4    54 1   
    11     4    55 1   
    12     5     6 1   
    13     5    56 1   
    14     5    57 1   
    15     6     7 1   
    16     7     8 1   
    17     7     8 1   
    18     7    13 1   
    19     8     9 1   
    20     8    58 1   
    21     9    10 1   
    22     9    10 1   
    23     9    59 1   
    24    10    11 1   
    25    10    12 1   
    26    12    13 1   
    27    12    13 1   
    28    12    60 1   
    29    13    61 1   
    30    14    15 1   
    31    14    62 1   
    32    14    63 1   
    33    15    16 1   
    34    15    16 1   
    35    15    17 1   
    36    17    18 1   
    37    18    19 1   
    38    18    30 1   
    39    18    64 1   
    40    19    20 1   
    41    19    65 1   
    42    19    66 1   
    43    20    21 1   
    44    20    67 1   
    45    20    68 1   
    46    21    22 1   
    47    21    69 1   
    48    21    70 1   
    49    22    23 1   
    50    23    24 1   
    51    23    24 1   
    52    23    29 1   
    53    24    25 1   
    54    24    71 1   
    55    25    26 1   
    56    25    26 1   
    57    25    72 1   
    58    26    27 1   
    59    26    28 1   
    60    28    29 1   
    61    28    29 1   
    62    28    73 1   
    63    29    74 1   
    64    30    31 1   
    65    30    75 1   
    66    30    76 1   
    67    31    32 1   
    68    31    32 1   
    69    31    33 1   
    70    33    34 1   
    71    34    35 1   
    72    34    46 1   
    73    34    77 1   
    74    35    36 1   
    75    35    78 1   
    76    35    79 1   
    77    36    37 1   
    78    36    80 1   
    79    36    81 1   
    80    37    38 1   
    81    37    82 1   
    82    37    83 1   
    83    38    39 1   
    84    39    40 1   
    85    39    40 1   
    86    39    45 1   
    87    40    41 1   
    88    40    84 1   
    89    41    42 1   
    90    41    42 1   
    91    41    85 1   
    92    42    43 1   
    93    42    44 1   
    94    44    45 1   
    95    44    45 1   
    96    44    86 1   
    97    45    87 1   
    98    46    47 1   
    99    46    88 1   
   100    46    89 1   
   101    47    48 1   
   102    47    48 1   
   103    47    49 1   
   104    49    90 1   
@<TRIPOS>SUBSTRUCTURE
     1 AGE         1 TEMP              0 ****  ****    0 ROOT
