@<TRIPOS>MOLECULE
AAI
   30    32     1     0     0
SMALL
abcg2


@<TRIPOS>ATOM
      1 O            8.9200    -1.7360     1.1730 oh         1 AAI      -0.696000
      2 C           10.0660    -0.9330     0.9170 c3         1 AAI       0.183300
      3 C1          11.2080    -1.7450     1.4870 c3         1 AAI      -0.136100
      4 C2          10.0410     0.5110     1.4360 c3         1 AAI       0.556000
      5 O1          10.8400     0.9360     2.2640 os         1 AAI      -0.499000
      6 O2           9.0670     1.3360     0.9870 os         1 AAI      -0.487000
      7 C3           8.2230     1.2960    -0.1850 c3         1 AAI       0.168300
      8 C4           7.7190    -0.0450    -0.6900 c3         1 AAI      -0.125100
      9 C5           8.7660     2.1230    -1.3600 c3         1 AAI       0.571000
     10 O3           9.0830     1.5910    -2.4210 os         1 AAI      -0.444000
     11 O4           8.9230     3.4630    -1.2100 os         1 AAI      -0.482000
     12 C6           8.3870     4.2210    -0.1100 c3         1 AAI       0.124300
     13 C7           6.8570     4.2680    -0.1510 c3         1 AAI      -0.117100
     14 C8           8.8910     5.6770    -0.1890 c3         1 AAI       0.585000
     15 O5           8.1670     6.6520    -0.1870 os         1 AAI      -0.496000
     16 O6          10.2420     5.8040    -0.2080 oh         1 AAI      -0.669000
     17 H            8.1910    -1.1850     1.4930 ho         1 AAI       0.515000
     18 H1          10.2650    -0.8720    -0.1560 h1         1 AAI       0.115700
     19 H2          11.0880    -1.8630     2.5690 hc         1 AAI       0.062367
     20 H3          12.1750    -1.2890     1.2700 hc         1 AAI       0.062367
     21 H4          11.1790    -2.7500     1.0490 hc         1 AAI       0.062367
     22 H5           7.3050     1.7510     0.1710 h1         1 AAI       0.093700
     23 H6           8.5340    -0.6990    -0.9890 hc         1 AAI       0.070700
     24 H7           7.0980     0.0490    -1.5830 hc         1 AAI       0.070700
     25 H8           7.1030    -0.5220     0.0730 hc         1 AAI       0.070700
     26 H9           8.7550     3.8080     0.8320 h1         1 AAI       0.097700
     27 H10          6.5060     4.7640    -1.0610 hc         1 AAI       0.062033
     28 H11          6.4730     4.8050     0.7210 hc         1 AAI       0.062033
     29 H12          6.3710     3.2950    -0.1640 hc         1 AAI       0.062033
     30 H13         10.7420     4.9680    -0.2200 ho         1 AAI       0.555000
@<TRIPOS>BOND
     1     1     2 1   
     2     1    17 1   
     3     2     3 1   
     4     2     4 1   
     5     2    18 1   
     6     3    19 1   
     7     3    20 1   
     8     3    21 1   
     9     4     5 1   
    10     4     5 1   
    11     4     6 1   
    12     6     7 1   
    13     7     8 1   
    14     7     9 1   
    15     7    22 1   
    16     8    23 1   
    17     8    24 1   
    18     8    25 1   
    19     9    10 1   
    20     9    10 1   
    21     9    11 1   
    22    11    12 1   
    23    12    13 1   
    24    12    14 1   
    25    12    26 1   
    26    13    27 1   
    27    13    28 1   
    28    13    29 1   
    29    14    15 1   
    30    14    15 1   
    31    14    16 1   
    32    16    30 1   
@<TRIPOS>SUBSTRUCTURE
     1 AAI         1 TEMP              0 ****  ****    0 ROOT
