@<TRIPOS>MOLECULE
ADO
   69    83     1     0     0
SMALL
abcg2


@<TRIPOS>ATOM
      1 O           16.1910    -1.8920    -2.5620 oh         1 ADO      -0.672000
      2 C           15.5940    -0.9580    -3.4600 c3         1 ADO       0.185300
      3 C1          16.5970    -0.5040    -4.5310 c3         1 ADO      -0.045400
      4 C2          16.0660    -0.4550    -5.9490 c3         1 ADO      -0.082000
      5 C3          14.7860    -0.8990    -6.3090 c3         1 ADO      -0.083700
      6 C4          14.4650    -1.1500    -7.6370 c3         1 ADO      -0.091700
      7 C5          15.3630    -0.8110    -8.6380 c3         1 ADO      -0.093700
      8 C6          16.5950    -0.2480    -8.3070 c3         1 ADO      -0.091700
      9 C7          16.9490    -0.0770    -6.9690 c3         1 ADO      -0.084700
     10 C8          15.1310     0.2370    -2.6690 c3         1 ADO      -0.168400
     11 C9          13.9970    -0.1600    -1.7320 c3         1 ADO       0.593000
     12 O1          13.6090    -1.3200    -1.6160 os         1 ADO      -0.516000
     13 O2          13.4700     0.8170    -0.9420 os         1 ADO      -0.458000
     14 C10         13.7360     2.1780    -1.2770 c3         1 ADO       0.181300
     15 C11         14.1590     2.9720    -0.0340 c3         1 ADO      -0.054400
     16 C12         15.4680     3.7270    -0.1940 c3         1 ADO      -0.090000
     17 C13         16.3020     3.6200    -1.3210 c3         1 ADO      -0.085700
     18 C14         17.6180     4.0560    -1.2930 c3         1 ADO      -0.088200
     19 C15         18.0750     4.7620    -0.1940 c3         1 ADO      -0.087700
     20 C16         17.2250     4.9950     0.8860 c3         1 ADO      -0.088200
     21 C17         15.9310     4.4730     0.8940 c3         1 ADO      -0.082700
     22 C18         12.5470     2.7940    -1.9560 c3         1 ADO      -0.151400
     23 C19         12.1780     2.1550    -3.2900 c3         1 ADO       0.604000
     24 O3          12.6350     1.0930    -3.7010 os         1 ADO      -0.520000
     25 O4          11.2380     2.7720    -4.0420 os         1 ADO      -0.456000
     26 C20         10.8010     4.1060    -3.7580 c3         1 ADO       0.179300
     27 C21          9.2690     4.0700    -3.6700 c3         1 ADO      -0.053400
     28 C22          8.7140     4.1160    -2.2550 c3         1 ADO      -0.096000
     29 C23          9.5030     4.0690    -1.0970 c3         1 ADO      -0.093700
     30 C24          8.9680     3.8110     0.1560 c3         1 ADO      -0.085700
     31 C25          7.5960     3.7930     0.3070 c3         1 ADO      -0.079700
     32 C26          6.7770     3.9770    -0.8070 c3         1 ADO      -0.085700
     33 C27          7.3290     4.1150    -2.0830 c3         1 ADO      -0.075700
     34 C28         11.3640     5.0740    -4.7910 c3         1 ADO      -0.150400
     35 C29         12.8830     5.0870    -4.7750 c3         1 ADO       0.589000
     36 O5          13.6050     4.3470    -4.1060 os         1 ADO      -0.512000
     37 O6          13.4370     6.0250    -5.5600 oh         1 ADO      -0.616000
     38 H           15.4330    -2.2340    -2.0380 ho         1 ADO       0.462000
     39 H1          14.7360    -1.4790    -3.8800 h1         1 ADO       0.055700
     40 H2          17.0200     0.4810    -4.2800 hc         1 ADO       0.065200
     41 H3          17.4420    -1.2040    -4.5290 hc         1 ADO       0.065200
     42 H4          14.0050    -1.1020    -5.5830 hc         1 ADO       0.094700
     43 H5          13.5210    -1.6340    -7.8710 hc         1 ADO       0.092200
     44 H6          15.0970    -0.9830    -9.6750 hc         1 ADO       0.088700
     45 H7          17.2990     0.0150    -9.0890 hc         1 ADO       0.092200
     46 H8          17.9330     0.3180    -6.7210 hc         1 ADO       0.110700
     47 H9          14.8280     0.9890    -3.4040 hc         1 ADO       0.100200
     48 H10         15.9580     0.6310    -2.0700 hc         1 ADO       0.100200
     49 H11         14.5110     2.2280    -2.0050 h1         1 ADO       0.082700
     50 H12         13.3720     3.6760     0.2710 hc         1 ADO       0.069200
     51 H13         14.2930     2.2750     0.8060 hc         1 ADO       0.069200
     52 H14         16.0020     3.1790    -2.2650 hc         1 ADO       0.090700
     53 H15         18.2700     3.8220    -2.1290 hc         1 ADO       0.095200
     54 H16         19.0930     5.1350    -0.1920 hc         1 ADO       0.092700
     55 H17         17.5870     5.5510     1.7440 hc         1 ADO       0.095200
     56 H18         15.2980     4.6240     1.7660 hc         1 ADO       0.111700
     57 H19         12.8260     3.8450    -2.0780 hc         1 ADO       0.112200
     58 H20         11.7020     2.6860    -1.2900 hc         1 ADO       0.112200
     59 H21         11.2060     4.4750    -2.8330 h1         1 ADO       0.084700
     60 H22          8.8330     4.8880    -4.2520 hc         1 ADO       0.065700
     61 H23          8.9020     3.1270    -4.1110 hc         1 ADO       0.065700
     62 H24         10.5670     4.2320    -1.1000 hc         1 ADO       0.088700
     63 H25          9.6350     3.6280     0.9950 hc         1 ADO       0.098200
     64 H26          7.1720     3.6530     1.2950 hc         1 ADO       0.098700
     65 H27          5.6990     3.9740    -0.6850 hc         1 ADO       0.098200
     66 H28          6.6720     4.2100    -2.9440 hc         1 ADO       0.100700
     67 H29         11.0180     6.0750    -4.5060 hc         1 ADO       0.092700
     68 H30         11.0140     4.8200    -5.7930 hc         1 ADO       0.092700
     69 H31         12.8090     6.5570    -6.0790 ho         1 ADO       0.469000
@<TRIPOS>BOND
     1     1     2 1   
     2     1    38 1   
     3     2     3 1   
     4     2    10 1   
     5     2    39 1   
     6     3     4 1   
     7     3    40 1   
     8     3    41 1   
     9     4     5 1   
    10     4     5 1   
    11     4     9 1   
    12     5     6 1   
    13     5    42 1   
    14     6     7 1   
    15     6     7 1   
    16     6    43 1   
    17     7     8 1   
    18     7    44 1   
    19     8     9 1   
    20     8     9 1   
    21     8    45 1   
    22     9    46 1   
    23    10    11 1   
    24    10    47 1   
    25    10    48 1   
    26    11    12 1   
    27    11    12 1   
    28    11    13 1   
    29    13    14 1   
    30    14    15 1   
    31    14    22 1   
    32    14    49 1   
    33    15    16 1   
    34    15    50 1   
    35    15    51 1   
    36    16    17 1   
    37    16    17 1   
    38    16    21 1   
    39    17    18 1   
    40    17    52 1   
    41    18    19 1   
    42    18    19 1   
    43    18    53 1   
    44    19    20 1   
    45    19    54 1   
    46    20    21 1   
    47    20    21 1   
    48    20    55 1   
    49    21    56 1   
    50    22    23 1   
    51    22    57 1   
    52    22    58 1   
    53    23    24 1   
    54    23    24 1   
    55    23    25 1   
    56    25    26 1   
    57    26    27 1   
    58    26    34 1   
    59    26    59 1   
    60    27    28 1   
    61    27    60 1   
    62    27    61 1   
    63    28    29 1   
    64    28    29 1   
    65    28    33 1   
    66    29    30 1   
    67    29    62 1   
    68    30    31 1   
    69    30    31 1   
    70    30    63 1   
    71    31    32 1   
    72    31    64 1   
    73    32    33 1   
    74    32    33 1   
    75    32    65 1   
    76    33    66 1   
    77    34    35 1   
    78    34    67 1   
    79    34    68 1   
    80    35    36 1   
    81    35    36 1   
    82    35    37 1   
    83    37    69 1   
@<TRIPOS>SUBSTRUCTURE
     1 ADO         1 TEMP              0 ****  ****    0 ROOT
