@<TRIPOS>MOLECULE
AHG
   81   101     1     0     0
SMALL
abcg2


@<TRIPOS>ATOM
      1 O           16.5260     1.3680     0.7550 oh         1 AHG      -0.670000
      2 C           16.3950     0.2630     1.6410 c3         1 AHG       0.181300
      3 C1          17.6370    -0.6270     1.6060 c3         1 AHG      -0.074400
      4 C2          18.7690     0.0080     0.8110 c3         1 AHG      -0.050400
      5 C3          20.0430    -0.7830     0.8890 c3         1 AHG      -0.044000
      6 C4          21.2570    -0.1130     1.0760 c3         1 AHG      -0.095700
      7 C5          22.4430    -0.8340     1.1900 c3         1 AHG      -0.049700
      8 C6          22.4240    -2.2310     1.1280 c3         1 AHG      -0.021000
      9 C7          23.6300    -2.9740     1.3440 c3         1 AHG       0.380600
     10 N           24.5980    -3.5750     1.5470 n3         1 AHG      -0.515600
     11 C8          21.2230    -2.9010     0.8930 c3         1 AHG      -0.049700
     12 C9          20.0420    -2.1780     0.7600 c3         1 AHG      -0.094700
     13 C10         15.2060    -0.5560     1.2150 c3         1 AHG      -0.166400
     14 C11         13.9450     0.2760     1.2380 c3         1 AHG       0.595000
     15 O1          13.9360     1.4830     1.4560 os         1 AHG      -0.514000
     16 O2          12.8210    -0.3800     0.8500 os         1 AHG      -0.457000
     17 C12         12.7520    -1.7670     1.1580 c3         1 AHG       0.178300
     18 C13         12.4620    -2.5540    -0.1060 c3         1 AHG      -0.092400
     19 C14         13.6440    -3.4830    -0.4210 c3         1 AHG      -0.050400
     20 C15         13.3930    -4.2980    -1.6580 c3         1 AHG      -0.050000
     21 C16         13.7250    -5.6560    -1.6920 c3         1 AHG      -0.094700
     22 C17         13.4440    -6.4140    -2.8290 c3         1 AHG      -0.048700
     23 C18         12.8220    -5.8240    -3.9340 c3         1 AHG      -0.016000
     24 C19         12.4440    -6.6260    -5.0610 c3         1 AHG       0.377600
     25 N1          12.1120    -7.2800    -5.9550 n3         1 AHG      -0.510600
     26 C20         12.5360    -4.4610    -3.9240 c3         1 AHG      -0.048700
     27 C21         12.8370    -3.7020    -2.7980 c3         1 AHG      -0.089700
     28 C22         11.7210    -2.0050     2.2150 c3         1 AHG      -0.147400
     29 C23         12.0070    -1.2390     3.4950 c3         1 AHG       0.599000
     30 O3          12.9010    -0.4140     3.6310 os         1 AHG      -0.514000
     31 O4          11.1510    -1.5050     4.5170 os         1 AHG      -0.454000
     32 C24         10.6630    -2.8450     4.6530 c3         1 AHG       0.177300
     33 C25          9.1460    -2.7820     4.6380 c3         1 AHG      -0.090400
     34 C26          8.5930    -3.0660     3.2280 c3         1 AHG      -0.050400
     35 C27          7.0900    -3.0700     3.2030 c3         1 AHG      -0.052000
     36 C28          6.3930    -4.0620     2.5070 c3         1 AHG      -0.092700
     37 C29          4.9980    -4.0810     2.5320 c3         1 AHG      -0.048700
     38 C30          4.2930    -3.1140     3.2560 c3         1 AHG      -0.013000
     39 C31          2.8660    -3.1950     3.3670 c3         1 AHG       0.375600
     40 N2           1.7180    -3.2800     3.4820 n3         1 AHG      -0.507600
     41 C32          4.9840    -2.0910     3.9040 c3         1 AHG      -0.048700
     42 C33          6.3730    -2.0610     3.8600 c3         1 AHG      -0.092700
     43 C34         11.2560    -3.5100     5.8920 c3         1 AHG      -0.150400
     44 C35         12.7710    -3.5410     5.8040 c3         1 AHG       0.589000
     45 O5          13.4260    -3.1170     4.8630 os         1 AHG      -0.513000
     46 O6          13.3750    -4.1710     6.8310 oh         1 AHG      -0.611000
     47 H           15.7140     1.9070     0.8720 ho         1 AHG       0.464000
     48 H1          16.2420     0.6340     2.6610 h1         1 AHG       0.051700
     49 H2          17.9530    -0.8480     2.6350 hc         1 AHG       0.056700
     50 H3          17.3870    -1.6090     1.1790 hc         1 AHG       0.056700
     51 H4          18.9380     1.0190     1.2030 hc         1 AHG       0.062200
     52 H5          18.4780     0.1030    -0.2430 hc         1 AHG       0.062200
     53 H6          21.2790     0.9730     1.1540 hc         1 AHG       0.100700
     54 H7          23.3760    -0.2990     1.3470 hc         1 AHG       0.104700
     55 H8          21.1880    -3.9860     0.8260 hc         1 AHG       0.105700
     56 H9          19.1180    -2.7210     0.5800 hc         1 AHG       0.105700
     57 H10         15.1830    -1.3880     1.9220 hc         1 AHG       0.098700
     58 H11         15.3340    -0.9250     0.1900 hc         1 AHG       0.098700
     59 H12         13.6490    -2.1760     1.6020 h1         1 AHG       0.075700
     60 H13         11.5570    -3.1660     0.0070 hc         1 AHG       0.068200
     61 H14         12.2800    -1.8550    -0.9270 hc         1 AHG       0.068200
     62 H15         13.8120    -4.1470     0.4410 hc         1 AHG       0.055700
     63 H16         14.5650    -2.9080    -0.5590 hc         1 AHG       0.055700
     64 H17         14.1860    -6.1380    -0.8310 hc         1 AHG       0.100700
     65 H18         13.6980    -7.4720    -2.8410 hc         1 AHG       0.107700
     66 H19         12.0670    -3.9750    -4.7760 hc         1 AHG       0.107700
     67 H20         12.6050    -2.6400    -2.8210 hc         1 AHG       0.105700
     68 H21         11.8160    -3.0810     2.3740 hc         1 AHG       0.110200
     69 H22         10.7320    -1.7430     1.8510 hc         1 AHG       0.110200
     70 H23         10.9650    -3.4980     3.8460 h1         1 AHG       0.077700
     71 H24          8.7330    -3.5220     5.3280 hc         1 AHG       0.064200
     72 H25          8.8270    -1.7880     4.9720 hc         1 AHG       0.064200
     73 H26          8.9780    -4.0380     2.8860 hc         1 AHG       0.058700
     74 H27          8.9260    -2.3190     2.5050 hc         1 AHG       0.058700
     75 H28          6.9240    -4.8370     1.9560 hc         1 AHG       0.100700
     76 H29          4.4640    -4.8650     1.9990 hc         1 AHG       0.107700
     77 H30          4.4580    -1.3180     4.4590 hc         1 AHG       0.108700
     78 H31          6.8860    -1.2480     4.3670 hc         1 AHG       0.104700
     79 H32         10.9040    -4.5490     5.8910 hc         1 AHG       0.094700
     80 H33         10.9310    -3.0030     6.8020 hc         1 AHG       0.094700
     81 H34         12.7960    -4.5400     7.5210 ho         1 AHG       0.469000
@<TRIPOS>BOND
     1     1     2 1   
     2     1    47 1   
     3     2     3 1   
     4     2    13 1   
     5     2    48 1   
     6     3     4 1   
     7     3    49 1   
     8     3    50 1   
     9     4     5 1   
    10     4    51 1   
    11     4    52 1   
    12     5     6 1   
    13     5     6 1   
    14     5    12 1   
    15     6     7 1   
    16     6    53 1   
    17     7     8 1   
    18     7     8 1   
    19     7    54 1   
    20     8     9 1   
    21     8    11 1   
    22     9    10 1   
    23     9    10 1   
    24     9    10 1   
    25    11    12 1   
    26    11    12 1   
    27    11    55 1   
    28    12    56 1   
    29    13    14 1   
    30    13    57 1   
    31    13    58 1   
    32    14    15 1   
    33    14    15 1   
    34    14    16 1   
    35    16    17 1   
    36    17    18 1   
    37    17    28 1   
    38    17    59 1   
    39    18    19 1   
    40    18    60 1   
    41    18    61 1   
    42    19    20 1   
    43    19    62 1   
    44    19    63 1   
    45    20    21 1   
    46    20    21 1   
    47    20    27 1   
    48    21    22 1   
    49    21    64 1   
    50    22    23 1   
    51    22    23 1   
    52    22    65 1   
    53    23    24 1   
    54    23    26 1   
    55    24    25 1   
    56    24    25 1   
    57    24    25 1   
    58    26    27 1   
    59    26    27 1   
    60    26    66 1   
    61    27    67 1   
    62    28    29 1   
    63    28    68 1   
    64    28    69 1   
    65    29    30 1   
    66    29    30 1   
    67    29    31 1   
    68    31    32 1   
    69    32    33 1   
    70    32    43 1   
    71    32    70 1   
    72    33    34 1   
    73    33    71 1   
    74    33    72 1   
    75    34    35 1   
    76    34    73 1   
    77    34    74 1   
    78    35    36 1   
    79    35    36 1   
    80    35    42 1   
    81    36    37 1   
    82    36    75 1   
    83    37    38 1   
    84    37    38 1   
    85    37    76 1   
    86    38    39 1   
    87    38    41 1   
    88    39    40 1   
    89    39    40 1   
    90    39    40 1   
    91    41    42 1   
    92    41    42 1   
    93    41    77 1   
    94    42    78 1   
    95    43    44 1   
    96    43    79 1   
    97    43    80 1   
    98    44    45 1   
    99    44    45 1   
   100    44    46 1   
   101    46    81 1   
@<TRIPOS>SUBSTRUCTURE
     1 AHG         1 TEMP              0 ****  ****    0 ROOT
