@<TRIPOS>MOLECULE
AEI
   72    86     1     0     0
SMALL
abcg2


@<TRIPOS>ATOM
      1 O            1.0000     0.0490     0.1150 oh         1 AEI      -0.724000
      2 C            2.4320     0.0930     0.0720 c3         1 AEI       0.170300
      3 C1           2.8730     1.3330    -0.7330 c3         1 AEI       0.111600
      4 O1           2.2610     1.3230    -2.0440 os         1 AEI      -0.417000
      5 C2           2.7430     2.2840    -2.9000 c3         1 AEI       0.175000
      6 C3           1.8370     2.9790    -3.6990 c3         1 AEI      -0.114700
      7 C4           2.2810     3.9620    -4.5990 c3         1 AEI      -0.057200
      8 C5           3.6280     4.2940    -4.6740 c3         1 AEI      -0.120700
      9 C6           4.5360     3.5200    -3.9740 c3         1 AEI      -0.057200
     10 C7           4.0970     2.5130    -3.1060 c3         1 AEI      -0.159700
     11 C8           2.9830     0.0870     1.5150 c3         1 AEI      -0.083400
     12 C9           4.4790    -0.1090     1.5100 c3         1 AEI       0.591000
     13 O2           5.0690    -0.5400     0.5220 os         1 AEI      -0.531000
     14 O3           5.0760     0.2050     2.7090 os         1 AEI      -0.468000
     15 C10          6.5450     0.1740     2.7050 c3         1 AEI       0.178300
     16 C11          7.0710     1.4280     1.9660 c3         1 AEI       0.142600
     17 O4           6.5380     1.4900     0.6430 os         1 AEI      -0.404000
     18 C12          7.0370     2.4630    -0.1570 c3         1 AEI       0.173000
     19 C13          6.1310     3.2810    -0.8060 c3         1 AEI      -0.159700
     20 C14          6.5690     4.2650    -1.6920 c3         1 AEI      -0.058700
     21 C15          7.9180     4.4440    -1.9340 c3         1 AEI      -0.121700
     22 C16          8.8200     3.5870    -1.3270 c3         1 AEI      -0.058700
     23 C17          8.3800     2.5910    -0.4490 c3         1 AEI      -0.113700
     24 C18          7.1110     0.1430     4.1620 c3         1 AEI      -0.106400
     25 C19          8.6230    -0.0470     4.1620 c3         1 AEI       0.604000
     26 O5           9.2170    -0.4730     3.1740 os         1 AEI      -0.552000
     27 O6           9.2350     0.2620     5.3580 os         1 AEI      -0.463000
     28 C20         10.7140     0.2380     5.3510 c3         1 AEI       0.140300
     29 C21         11.2330     1.5060     4.6420 c3         1 AEI       0.150600
     30 O7          10.7530     1.5560     3.3070 os         1 AEI      -0.400000
     31 C22         11.2760     2.5670     2.5710 c3         1 AEI       0.154000
     32 C23         10.3700     3.3230     1.8530 c3         1 AEI      -0.111700
     33 C24         10.8170     4.3060     0.9800 c3         1 AEI      -0.055200
     34 C25         12.1720     4.5500     0.8350 c3         1 AEI      -0.118700
     35 C26         13.0790     3.8340     1.6060 c3         1 AEI      -0.055200
     36 C27         12.6350     2.8270     2.4600 c3         1 AEI      -0.160700
     37 C28         11.2880     0.2130     6.7960 c3         1 AEI      -0.156400
     38 C29         12.8110     0.1520     6.8080 c3         1 AEI       0.583000
     39 O8          13.5130     0.0360     5.8060 os         1 AEI      -0.497000
     40 O9          13.3800     0.2440     8.0260 oh         1 AEI      -0.622000
     41 H            0.7180     0.0930    -0.8210 ho         1 AEI       0.525000
     42 H1           2.7490    -0.8130    -0.4580 h1         1 AEI       0.077700
     43 H2           3.9580     1.3080    -0.8030 h1         1 AEI       0.056200
     44 H3           2.5510     2.2460    -0.2170 h1         1 AEI       0.056200
     45 H4           0.7770     2.7530    -3.6380 hc         1 AEI       0.108700
     46 H5           1.5810     4.4530    -5.2680 hc         1 AEI       0.095200
     47 H6           3.9790     5.1080    -5.3020 hc         1 AEI       0.095700
     48 H7           5.6000     3.6990    -4.1060 hc         1 AEI       0.095200
     49 H8           4.8430     1.9070    -2.6030 hc         1 AEI       0.098700
     50 H9           2.5490    -0.7520     2.0710 hc         1 AEI       0.099700
     51 H10          2.7000     1.0130     2.0290 hc         1 AEI       0.099700
     52 H11          6.8630    -0.7390     2.1840 h1         1 AEI       0.110700
     53 H12          8.1570     1.3840     1.9380 h1         1 AEI       0.065200
     54 H13          6.7450     2.3290     2.4990 h1         1 AEI       0.065200
     55 H14          5.0700     3.1320    -0.6530 hc         1 AEI       0.099700
     56 H15          5.8510     4.8700    -2.2320 hc         1 AEI       0.094700
     57 H16          8.2570     5.2320    -2.5970 hc         1 AEI       0.094700
     58 H17          9.8820     3.7160    -1.5090 hc         1 AEI       0.094700
     59 H18          9.1020     1.9300     0.0180 hc         1 AEI       0.108700
     60 H19          6.6790    -0.7010     4.7100 hc         1 AEI       0.099200
     61 H20          6.8330     1.0640     4.6860 hc         1 AEI       0.099200
     62 H21         11.0400    -0.6710     4.8280 h1         1 AEI       0.090700
     63 H22         12.3200     1.5180     4.6430 h1         1 AEI       0.081700
     64 H23         10.8690     2.3950     5.1680 h1         1 AEI       0.081700
     65 H24          9.3090     3.1420     1.9640 hc         1 AEI       0.107700
     66 H25         10.1050     4.8770     0.3970 hc         1 AEI       0.099200
     67 H26         12.5030     5.3110     0.1380 hc         1 AEI       0.095700
     68 H27         14.1380     4.0550     1.5440 hc         1 AEI       0.099200
     69 H28         13.3620     2.2520     3.0210 hc         1 AEI       0.103700
     70 H29         10.9060    -0.6580     7.3390 hc         1 AEI       0.091200
     71 H30         10.9620     1.1110     7.3350 hc         1 AEI       0.091200
     72 H31         12.7840     0.2890     8.7950 ho         1 AEI       0.493000
@<TRIPOS>BOND
     1     1     2 1   
     2     1    41 1   
     3     2     3 1   
     4     2    11 1   
     5     2    42 1   
     6     3     4 1   
     7     3    43 1   
     8     3    44 1   
     9     4     5 1   
    10     5     6 1   
    11     5     6 1   
    12     5    10 1   
    13     6     7 1   
    14     6    45 1   
    15     7     8 1   
    16     7     8 1   
    17     7    46 1   
    18     8     9 1   
    19     8    47 1   
    20     9    10 1   
    21     9    10 1   
    22     9    48 1   
    23    10    49 1   
    24    11    12 1   
    25    11    50 1   
    26    11    51 1   
    27    12    13 1   
    28    12    13 1   
    29    12    14 1   
    30    14    15 1   
    31    15    16 1   
    32    15    24 1   
    33    15    52 1   
    34    16    17 1   
    35    16    53 1   
    36    16    54 1   
    37    17    18 1   
    38    18    19 1   
    39    18    19 1   
    40    18    23 1   
    41    19    20 1   
    42    19    55 1   
    43    20    21 1   
    44    20    21 1   
    45    20    56 1   
    46    21    22 1   
    47    21    57 1   
    48    22    23 1   
    49    22    23 1   
    50    22    58 1   
    51    23    59 1   
    52    24    25 1   
    53    24    60 1   
    54    24    61 1   
    55    25    26 1   
    56    25    26 1   
    57    25    27 1   
    58    27    28 1   
    59    28    29 1   
    60    28    37 1   
    61    28    62 1   
    62    29    30 1   
    63    29    63 1   
    64    29    64 1   
    65    30    31 1   
    66    31    32 1   
    67    31    32 1   
    68    31    36 1   
    69    32    33 1   
    70    32    65 1   
    71    33    34 1   
    72    33    34 1   
    73    33    66 1   
    74    34    35 1   
    75    34    67 1   
    76    35    36 1   
    77    35    36 1   
    78    35    68 1   
    79    36    69 1   
    80    37    38 1   
    81    37    70 1   
    82    37    71 1   
    83    38    39 1   
    84    38    39 1   
    85    38    40 1   
    86    40    72 1   
@<TRIPOS>SUBSTRUCTURE
     1 AEI         1 TEMP              0 ****  ****    0 ROOT
