@<TRIPOS>MOLECULE
ACQ
   60    65     1     0     0
SMALL
abcg2


@<TRIPOS>ATOM
      1 O           13.2480    -2.1130     3.3150 oh         1 ACQ      -0.668000
      2 C           14.0100    -2.4510     2.1520 c3         1 ACQ       0.181300
      3 C1          15.4990    -2.1470     2.4010 c3         1 ACQ      -0.073400
      4 C2          15.8130    -2.0370     3.8900 c3         1 ACQ      -0.055400
      5 C3          17.2330    -1.6570     4.1650 c3         1 ACQ      -0.121700
      6 C4          17.6700    -1.4900     5.4190 c3         1 ACQ      -0.143400
      7 C5          13.5060    -1.6240     0.9810 c3         1 ACQ      -0.166400
      8 C6          12.0250    -1.8130     0.7580 c3         1 ACQ       0.596000
      9 O1          11.3540    -2.5790     1.4490 os         1 ACQ      -0.517000
     10 O2          11.4260    -1.0320    -0.1730 os         1 ACQ      -0.457000
     11 C7          12.1590    -0.1770    -1.0790 c3         1 ACQ       0.177300
     12 C8          11.9240     1.2740    -0.6240 c3         1 ACQ      -0.091400
     13 C9          13.0510     1.7240     0.2950 c3         1 ACQ      -0.057400
     14 C10         12.9370     3.1370     0.7490 c3         1 ACQ      -0.122700
     15 C11         13.8520     3.6660     1.5700 c3         1 ACQ      -0.138400
     16 C12         11.6150    -0.3670    -2.4880 c3         1 ACQ      -0.146400
     17 C13         11.7600    -1.7920    -2.9810 c3         1 ACQ       0.599000
     18 O3          12.2690    -2.6760    -2.2970 os         1 ACQ      -0.515000
     19 O4          11.2680    -2.0870    -4.2180 os         1 ACQ      -0.453000
     20 C14         10.7850    -1.0960    -5.1560 c3         1 ACQ       0.176300
     21 C15          9.2460    -1.1300    -5.1730 c3         1 ACQ      -0.090400
     22 C16          8.6420    -1.1560    -3.7690 c3         1 ACQ      -0.056400
     23 C17          7.1540    -1.1780    -3.7300 c3         1 ACQ      -0.131700
     24 C18          6.5030    -1.1920    -2.5600 c3         1 ACQ      -0.127400
     25 C19         11.3550    -1.4130    -6.5530 c3         1 ACQ      -0.148400
     26 C20         12.8650    -1.3640    -6.5290 c3         1 ACQ       0.588000
     27 O5          13.5340    -1.0800    -5.5380 os         1 ACQ      -0.510000
     28 O6          13.4480    -1.6180    -7.7180 oh         1 ACQ      -0.614000
     29 H           12.3230    -2.3860     3.1420 ho         1 ACQ       0.461000
     30 H1          13.8760    -3.5190     1.9530 h1         1 ACQ       0.049700
     31 H2          16.1060    -2.9320     1.9310 hc         1 ACQ       0.053200
     32 H3          15.7990    -1.2150     1.9010 hc         1 ACQ       0.053200
     33 H4          15.5830    -2.9950     4.3710 hc         1 ACQ       0.055700
     34 H5          15.1770    -1.2630     4.3380 hc         1 ACQ       0.055700
     35 H6          17.9050    -1.4870     3.3290 hc         1 ACQ       0.076700
     36 H7          17.0020    -1.6400     6.2640 hc         1 ACQ       0.071700
     37 H8          18.6920    -1.1970     5.6230 hc         1 ACQ       0.071700
     38 H9          14.0730    -1.8610     0.0790 hc         1 ACQ       0.098700
     39 H10         13.6810    -0.5920     1.2640 hc         1 ACQ       0.098700
     40 H11         13.2210    -0.4210    -1.1150 h1         1 ACQ       0.076700
     41 H12         11.8800     1.9500    -1.4850 hc         1 ACQ       0.064200
     42 H13         10.9660     1.3600    -0.0910 hc         1 ACQ       0.064200
     43 H14         14.0120     1.5670    -0.2130 hc         1 ACQ       0.051200
     44 H15         13.0190     1.1260     1.2050 hc         1 ACQ       0.051200
     45 H16         12.0670     3.7140     0.4540 hc         1 ACQ       0.083700
     46 H17         14.7110     3.0880     1.9040 hc         1 ACQ       0.073200
     47 H18         13.7480     4.6780     1.9400 hc         1 ACQ       0.073200
     48 H19         12.1580     0.3050    -3.1570 hc         1 ACQ       0.108200
     49 H20         10.5710    -0.0830    -2.4480 hc         1 ACQ       0.108200
     50 H21         11.1200    -0.0930    -4.8800 h1         1 ACQ       0.077700
     51 H22          8.8790    -0.2510    -5.7170 hc         1 ACQ       0.060700
     52 H23          8.8990    -2.0170    -5.7160 hc         1 ACQ       0.060700
     53 H24          8.9280    -0.2350    -3.2600 hc         1 ACQ       0.053200
     54 H25          9.0210    -2.0210    -3.2100 hc         1 ACQ       0.053200
     55 H26          6.6060    -1.1490    -4.6650 hc         1 ACQ       0.078700
     56 H27          7.0400    -1.2100    -1.6130 hc         1 ACQ       0.076700
     57 H28          5.4210    -1.1830    -2.5240 hc         1 ACQ       0.076700
     58 H29         10.9960    -0.6640    -7.2690 hc         1 ACQ       0.093200
     59 H30         11.0380    -2.4100    -6.8820 hc         1 ACQ       0.093200
     60 H31         12.8490    -1.8160    -8.4620 ho         1 ACQ       0.468000
@<TRIPOS>BOND
     1     1     2 1   
     2     1    29 1   
     3     2     3 1   
     4     2     7 1   
     5     2    30 1   
     6     3     4 1   
     7     3    31 1   
     8     3    32 1   
     9     4     5 1   
    10     4    33 1   
    11     4    34 1   
    12     5     6 1   
    13     5     6 1   
    14     5    35 1   
    15     6    36 1   
    16     6    37 1   
    17     7     8 1   
    18     7    38 1   
    19     7    39 1   
    20     8     9 1   
    21     8     9 1   
    22     8    10 1   
    23    10    11 1   
    24    11    12 1   
    25    11    16 1   
    26    11    40 1   
    27    12    13 1   
    28    12    41 1   
    29    12    42 1   
    30    13    14 1   
    31    13    43 1   
    32    13    44 1   
    33    14    15 1   
    34    14    15 1   
    35    14    45 1   
    36    15    46 1   
    37    15    47 1   
    38    16    17 1   
    39    16    48 1   
    40    16    49 1   
    41    17    18 1   
    42    17    18 1   
    43    17    19 1   
    44    19    20 1   
    45    20    21 1   
    46    20    25 1   
    47    20    50 1   
    48    21    22 1   
    49    21    51 1   
    50    21    52 1   
    51    22    23 1   
    52    22    53 1   
    53    22    54 1   
    54    23    24 1   
    55    23    24 1   
    56    23    55 1   
    57    24    56 1   
    58    24    57 1   
    59    25    26 1   
    60    25    58 1   
    61    25    59 1   
    62    26    27 1   
    63    26    27 1   
    64    26    28 1   
    65    28    60 1   
@<TRIPOS>SUBSTRUCTURE
     1 ACQ         1 TEMP              0 ****  ****    0 ROOT
