@<TRIPOS>MOLECULE
ALT
   90   104     1     0     0
SMALL
abcg2


@<TRIPOS>ATOM
      1 O           16.3960    -1.3470    -0.4420 oh         1 ALT      -0.668000
      2 C           16.3360    -0.2150    -1.3040 c3         1 ALT       0.183300
      3 C1          17.5880     0.6620    -1.1500 c3         1 ALT      -0.076400
      4 C2          18.7160    -0.1060    -0.4820 c3         1 ALT      -0.085400
      5 C3          20.0070     0.6850    -0.4490 c3         1 ALT       0.152600
      6 O1          20.9950    -0.1380     0.1790 os         1 ALT      -0.400000
      7 C4          22.2180     0.4570     0.3030 c3         1 ALT       0.182000
      8 C5          22.3900     1.7670     0.7480 c3         1 ALT      -0.159700
      9 C6          23.6730     2.3040     0.8600 c3         1 ALT      -0.048700
     10 C7          24.7820     1.5210     0.5450 c3         1 ALT       0.051000
     11 Cl          26.3590     2.1980     0.6630 cl         1 ALT      -0.171000
     12 C8          24.6190     0.1980     0.1410 c3         1 ALT      -0.052700
     13 C9          23.3330    -0.3380     0.0290 c3         1 ALT      -0.111700
     14 C10         15.1130     0.5920    -0.9470 c3         1 ALT      -0.167400
     15 C11         13.8550    -0.2380    -1.0800 c3         1 ALT       0.596000
     16 O2          13.8650    -1.4420    -1.3220 os         1 ALT      -0.513000
     17 O3          12.7010     0.4040    -0.7500 os         1 ALT      -0.459000
     18 C12         12.6170     1.7960    -1.0410 c3         1 ALT       0.182300
     19 C13         12.3050     2.5670     0.2410 c3         1 ALT      -0.094400
     20 C14         13.4790     3.4870     0.5910 c3         1 ALT      -0.093400
     21 C15         13.1920     4.2880     1.8490 c3         1 ALT       0.154600
     22 O4          14.3120     5.1390     2.1100 os         1 ALT      -0.400000
     23 C16         14.1840     5.8850     3.2510 c3         1 ALT       0.180000
     24 C17         13.7210     5.3670     4.4620 c3         1 ALT      -0.158700
     25 C18         13.6240     6.1890     5.5870 c3         1 ALT      -0.048700
     26 C19         14.0080     7.5250     5.5050 c3         1 ALT       0.053000
     27 Cl1         13.8630     8.5380     6.8880 cl         1 ALT      -0.168000
     28 C20         14.5110     8.0400     4.3120 c3         1 ALT      -0.052700
     29 C21         14.6070     7.2150     3.1860 c3         1 ALT      -0.108700
     30 C22         11.6000     2.0390    -2.1280 c3         1 ALT      -0.149400
     31 C23         11.9510     1.3060    -3.4170 c3         1 ALT       0.599000
     32 O5          12.8560     0.4870    -3.5280 os         1 ALT      -0.513000
     33 O6          11.1430     1.5800    -4.4770 os         1 ALT      -0.454000
     34 C24         10.6550     2.9190    -4.6240 c3         1 ALT       0.180300
     35 C25          9.1290     2.8480    -4.6060 c3         1 ALT      -0.089400
     36 C26          8.5490     2.8230    -6.0070 c3         1 ALT      -0.088400
     37 C27          7.0370     2.8220    -5.9970 c3         1 ALT       0.152600
     38 O7           6.6200     2.8260    -7.3640 os         1 ALT      -0.403000
     39 C28          5.2650     2.8690    -7.5220 c3         1 ALT       0.177000
     40 C29          4.4390     3.7330    -6.8030 c3         1 ALT      -0.157700
     41 C30          3.0620     3.7220    -7.0200 c3         1 ALT      -0.048700
     42 C31          2.5180     2.8620    -7.9710 c3         1 ALT       0.054000
     43 Cl2          0.8160     2.8380    -8.2160 cl         1 ALT      -0.165000
     44 C32          3.3430     2.0290    -8.7240 c3         1 ALT      -0.052700
     45 C33          4.7220     2.0390    -8.5040 c3         1 ALT      -0.109700
     46 C34         11.2980     3.5820    -5.8440 c3         1 ALT      -0.150400
     47 C35         12.8020     3.6220    -5.7440 c3         1 ALT       0.589000
     48 O8          13.4570     3.2170    -4.7880 os         1 ALT      -0.514000
     49 O9          13.3910     4.2220    -6.7980 oh         1 ALT      -0.611000
     50 H           15.6090    -1.8940    -0.6570 ho         1 ALT       0.464000
     51 H1          16.2680    -0.5660    -2.3410 h1         1 ALT       0.052700
     52 H2          17.8890     1.0330    -2.1390 hc         1 ALT       0.053700
     53 H3          17.3700     1.5660    -0.5620 hc         1 ALT       0.053700
     54 H4          18.8790    -1.0580    -0.9990 hc         1 ALT       0.067200
     55 H5          18.4280    -0.3520     0.5490 hc         1 ALT       0.067200
     56 H6          19.8270     1.6080     0.1110 h1         1 ALT       0.040200
     57 H7          20.3200     0.9260    -1.4710 h1         1 ALT       0.040200
     58 H8          21.5430     2.3810     1.0350 hc         1 ALT       0.102700
     59 H9          23.7970     3.3280     1.2010 hc         1 ALT       0.106700
     60 H10         25.4830    -0.4200    -0.0860 hc         1 ALT       0.109700
     61 H11         23.2010    -1.3710    -0.2830 hc         1 ALT       0.114700
     62 H12         15.1340     1.4510    -1.6190 hc         1 ALT       0.099700
     63 H13         15.1670     0.9160     0.0990 hc         1 ALT       0.099700
     64 H14         13.5260     2.2080    -1.4670 h1         1 ALT       0.077700
     65 H15         11.4070     3.1830     0.1110 hc         1 ALT       0.062700
     66 H16         12.1120     1.8780     1.0720 hc         1 ALT       0.062700
     67 H17         13.6950     4.1670    -0.2430 hc         1 ALT       0.066200
     68 H18         14.3940     2.9020     0.7410 hc         1 ALT       0.066200
     69 H19         13.0220     3.5770     2.6630 h1         1 ALT       0.042700
     70 H20         12.2950     4.9000     1.6980 h1         1 ALT       0.042700
     71 H21         13.4540     4.3210     4.5650 hc         1 ALT       0.101700
     72 H22         13.2580     5.7760     6.5230 hc         1 ALT       0.107700
     73 H23         14.8300     9.0770     4.2530 hc         1 ALT       0.109700
     74 H24         15.0030     7.6160     2.2570 hc         1 ALT       0.115700
     75 H25         11.6820     3.1170    -2.2660 hc         1 ALT       0.110700
     76 H26         10.5870     1.7680    -1.8230 hc         1 ALT       0.110700
     77 H27         10.9250     3.5600    -3.7940 h1         1 ALT       0.076700
     78 H28          8.7890     1.9670    -4.0420 hc         1 ALT       0.058200
     79 H29          8.7490     3.7250    -4.0670 hc         1 ALT       0.058200
     80 H30          8.9280     1.9570    -6.5620 hc         1 ALT       0.067200
     81 H31          8.8690     3.7160    -6.5570 hc         1 ALT       0.067200
     82 H32          6.7090     3.7230    -5.4690 h1         1 ALT       0.042700
     83 H33          6.6610     1.9290    -5.4860 h1         1 ALT       0.042700
     84 H34          4.8440     4.4370    -6.0850 hc         1 ALT       0.101700
     85 H35          2.4250     4.3910    -6.4490 hc         1 ALT       0.108700
     86 H36          2.9200     1.3710    -9.4780 hc         1 ALT       0.111700
     87 H37          5.3690     1.3900    -9.0900 hc         1 ALT       0.114700
     88 H38         10.9420     4.6180    -5.8820 hc         1 ALT       0.096200
     89 H39         11.0390     3.0540    -6.7660 hc         1 ALT       0.096200
     90 H40         12.7830     4.5500    -7.4880 ho         1 ALT       0.469000
@<TRIPOS>BOND
     1     1     2 1   
     2     1    50 1   
     3     2     3 1   
     4     2    14 1   
     5     2    51 1   
     6     3     4 1   
     7     3    52 1   
     8     3    53 1   
     9     4     5 1   
    10     4    54 1   
    11     4    55 1   
    12     5     6 1   
    13     5    56 1   
    14     5    57 1   
    15     6     7 1   
    16     7     8 1   
    17     7     8 1   
    18     7    13 1   
    19     8     9 1   
    20     8    58 1   
    21     9    10 1   
    22     9    10 1   
    23     9    59 1   
    24    10    11 1   
    25    10    12 1   
    26    12    13 1   
    27    12    13 1   
    28    12    60 1   
    29    13    61 1   
    30    14    15 1   
    31    14    62 1   
    32    14    63 1   
    33    15    16 1   
    34    15    16 1   
    35    15    17 1   
    36    17    18 1   
    37    18    19 1   
    38    18    30 1   
    39    18    64 1   
    40    19    20 1   
    41    19    65 1   
    42    19    66 1   
    43    20    21 1   
    44    20    67 1   
    45    20    68 1   
    46    21    22 1   
    47    21    69 1   
    48    21    70 1   
    49    22    23 1   
    50    23    24 1   
    51    23    24 1   
    52    23    29 1   
    53    24    25 1   
    54    24    71 1   
    55    25    26 1   
    56    25    26 1   
    57    25    72 1   
    58    26    27 1   
    59    26    28 1   
    60    28    29 1   
    61    28    29 1   
    62    28    73 1   
    63    29    74 1   
    64    30    31 1   
    65    30    75 1   
    66    30    76 1   
    67    31    32 1   
    68    31    32 1   
    69    31    33 1   
    70    33    34 1   
    71    34    35 1   
    72    34    46 1   
    73    34    77 1   
    74    35    36 1   
    75    35    78 1   
    76    35    79 1   
    77    36    37 1   
    78    36    80 1   
    79    36    81 1   
    80    37    38 1   
    81    37    82 1   
    82    37    83 1   
    83    38    39 1   
    84    39    40 1   
    85    39    40 1   
    86    39    45 1   
    87    40    41 1   
    88    40    84 1   
    89    41    42 1   
    90    41    42 1   
    91    41    85 1   
    92    42    43 1   
    93    42    44 1   
    94    44    45 1   
    95    44    45 1   
    96    44    86 1   
    97    45    87 1   
    98    46    47 1   
    99    46    88 1   
   100    46    89 1   
   101    47    48 1   
   102    47    48 1   
   103    47    49 1   
   104    49    90 1   
@<TRIPOS>SUBSTRUCTURE
     1 ALT         1 TEMP              0 ****  ****    0 ROOT
