@<TRIPOS>MOLECULE
ACM
   51    56     1     0     0
SMALL
abcg2


@<TRIPOS>ATOM
      1 O           13.6580     0.9360    -3.3640 oh         1 ACM      -0.669000
      2 C           14.3190     1.7500    -2.3830 c3         1 ACM       0.184300
      3 C1          15.8440     1.6030    -2.5430 c3         1 ACM      -0.054400
      4 C2          16.2880     1.6630    -3.9790 c3         1 ACM      -0.116700
      5 C3          17.5700     1.6920    -4.3570 c3         1 ACM      -0.149400
      6 C4          13.8790     1.2790    -0.9980 c3         1 ACM      -0.167400
      7 C5          12.3730     1.4170    -0.8500 c3         1 ACM       0.597000
      8 O1          11.6690     1.8720    -1.7510 os         1 ACM      -0.518000
      9 O2          11.7900     0.9130     0.2690 os         1 ACM      -0.457000
     10 C6          12.5540     0.2680     1.3120 c3         1 ACM       0.181300
     11 C7          12.5360    -1.2680     1.1030 c3         1 ACM      -0.069400
     12 C8          12.6110    -1.7230    -0.3300 c3         1 ACM      -0.134700
     13 C9          12.8710    -2.9670    -0.7370 c3         1 ACM      -0.131400
     14 C10         11.9160     0.6310     2.6600 c3         1 ACM      -0.147400
     15 C11         11.9350     2.1320     2.8850 c3         1 ACM       0.599000
     16 O3          12.3800     2.9240     2.0580 os         1 ACM      -0.514000
     17 O4          11.3910     2.6030     4.0410 os         1 ACM      -0.455000
     18 C12         10.8480     1.7490     5.0750 c3         1 ACM       0.180300
     19 C13          9.3020     1.7860     5.0380 c3         1 ACM      -0.066400
     20 C14          8.7000     2.1190     3.6970 c3         1 ACM      -0.138700
     21 C15          7.3860     2.1930     3.4640 c3         1 ACM      -0.125400
     22 C16         11.3980     2.2450     6.4240 c3         1 ACM      -0.149400
     23 C17         12.9100     2.1950     6.4140 c3         1 ACM       0.588000
     24 O5          13.5850     1.7690     5.4790 os         1 ACM      -0.510000
     25 O6          13.4880     2.6230     7.5530 oh         1 ACM      -0.614000
     26 H           12.7110     1.1880    -3.3330 ho         1 ACM       0.462000
     27 H1          14.0310     2.7950    -2.5440 h1         1 ACM       0.053700
     28 H2          16.3390     2.3920    -1.9640 hc         1 ACM       0.058700
     29 H3          16.1680     0.6390    -2.1290 hc         1 ACM       0.058700
     30 H4          15.5170     1.6270    -4.7480 hc         1 ACM       0.096700
     31 H5          18.3730     1.6930    -3.6290 hc         1 ACM       0.071200
     32 H6          17.8280     1.6940    -5.4110 hc         1 ACM       0.071200
     33 H7          14.3890     1.8510    -0.2200 hc         1 ACM       0.099700
     34 H8          14.1660     0.2260    -0.9140 hc         1 ACM       0.099700
     35 H9          13.5850     0.6300     1.3300 h1         1 ACM       0.079700
     36 H10         13.3730    -1.6920     1.6730 hc         1 ACM       0.068200
     37 H11         11.6150    -1.6850     1.5270 hc         1 ACM       0.068200
     38 H12         12.4060    -1.0170    -1.1280 hc         1 ACM       0.088700
     39 H13         13.0250    -3.7780    -0.0380 hc         1 ACM       0.075700
     40 H14         12.9030    -3.1770    -1.8030 hc         1 ACM       0.075700
     41 H15         12.4930     0.1420     3.4500 hc         1 ACM       0.109700
     42 H16         10.8760     0.2820     2.6780 hc         1 ACM       0.109700
     43 H17         11.1700     0.7120     4.9520 h1         1 ACM       0.080700
     44 H18          8.9350     0.8030     5.3630 hc         1 ACM       0.064200
     45 H19          8.9290     2.5110     5.7720 hc         1 ACM       0.064200
     46 H20          9.3490     2.3730     2.8630 hc         1 ACM       0.092700
     47 H21          6.6550     1.9910     4.2380 hc         1 ACM       0.077700
     48 H22          7.0300     2.4800     2.4780 hc         1 ACM       0.077700
     49 H23         11.0300     1.6020     7.2320 hc         1 ACM       0.092700
     50 H24         11.0820     3.2790     6.6080 hc         1 ACM       0.092700
     51 H25         12.8840     2.9270     8.2560 ho         1 ACM       0.468000
@<TRIPOS>BOND
     1     1     2 1   
     2     1    26 1   
     3     2     3 1   
     4     2     6 1   
     5     2    27 1   
     6     3     4 1   
     7     3    28 1   
     8     3    29 1   
     9     4     5 1   
    10     4     5 1   
    11     4    30 1   
    12     5    31 1   
    13     5    32 1   
    14     6     7 1   
    15     6    33 1   
    16     6    34 1   
    17     7     8 1   
    18     7     8 1   
    19     7     9 1   
    20     9    10 1   
    21    10    11 1   
    22    10    14 1   
    23    10    35 1   
    24    11    12 1   
    25    11    36 1   
    26    11    37 1   
    27    12    13 1   
    28    12    13 1   
    29    12    38 1   
    30    13    39 1   
    31    13    40 1   
    32    14    15 1   
    33    14    41 1   
    34    14    42 1   
    35    15    16 1   
    36    15    16 1   
    37    15    17 1   
    38    17    18 1   
    39    18    19 1   
    40    18    22 1   
    41    18    43 1   
    42    19    20 1   
    43    19    44 1   
    44    19    45 1   
    45    20    21 1   
    46    20    21 1   
    47    20    46 1   
    48    21    47 1   
    49    21    48 1   
    50    22    23 1   
    51    22    49 1   
    52    22    50 1   
    53    23    24 1   
    54    23    24 1   
    55    23    25 1   
    56    25    51 1   
@<TRIPOS>SUBSTRUCTURE
     1 ACM         1 TEMP              0 ****  ****    0 ROOT
