@<TRIPOS>MOLECULE
AMB
   48    50     1     0     0
SMALL
abcg2


@<TRIPOS>ATOM
      1 O            1.0560    -0.0390    -0.0480 oh         1 AMB      -0.664000
      2 C            2.4760    -0.0390    -0.0670 c3         1 AMB       0.155600
      3 C1           2.9940     0.0190     1.3660 c3         1 AMB      -0.084400
      4 C2           4.5190     0.0210     1.3940 c3         1 AMB      -0.079400
      5 C3           5.0970     0.0790     2.8140 c3         1 AMB      -0.076400
      6 C4           6.6160     0.0770     2.7650 c3         1 AMB       0.588000
      7 O1           7.2680     0.0340     1.7290 os         1 AMB      -0.542000
      8 O2           7.1650     0.1280     4.0170 os         1 AMB      -0.475000
      9 C5           8.6090     0.1280     4.0120 c3         1 AMB       0.163600
     10 C6           9.1470     0.1870     5.4480 c3         1 AMB      -0.085400
     11 C7          10.6810     0.1880     5.4780 c3         1 AMB      -0.079400
     12 C8          11.2700     0.2460     6.8980 c3         1 AMB      -0.076400
     13 C9          12.7910     0.2440     6.8510 c3         1 AMB       0.588000
     14 O3          13.4450     0.2020     5.8160 os         1 AMB      -0.538000
     15 O4          13.3410     0.2950     8.1040 os         1 AMB      -0.476000
     16 C10         14.7860     0.2950     8.1010 c3         1 AMB       0.163600
     17 C11         15.3220     0.3540     9.5370 c3         1 AMB      -0.086400
     18 C12         16.8540     0.3560     9.5700 c3         1 AMB      -0.074400
     19 C13         17.4330     0.4140    10.9920 c3         1 AMB      -0.122400
     20 C14         18.9480     0.4120    10.9440 c3         1 AMB       0.578000
     21 O5          19.6080     0.3700     9.9130 os         1 AMB      -0.483000
     22 O6          19.5410     0.4610    12.1570 oh         1 AMB      -0.627000
     23 H            0.7610    -0.0760    -0.9750 ho         1 AMB       0.440000
     24 H1           2.8170     0.8290    -0.6410 h1         1 AMB       0.023700
     25 H2           2.8170    -0.9510    -0.5680 h1         1 AMB       0.023700
     26 H3           2.6010    -0.8350     1.9310 hc         1 AMB       0.056700
     27 H4           2.6010     0.9170     1.8590 hc         1 AMB       0.056700
     28 H5           4.8890     0.8770     0.8150 hc         1 AMB       0.058200
     29 H6           4.8890    -0.8810     0.8870 hc         1 AMB       0.058200
     30 H7           4.7550    -0.7910     3.3850 hc         1 AMB       0.080200
     31 H8           4.7550     0.9930     3.3120 hc         1 AMB       0.080200
     32 H9           8.9660     1.0000     3.4500 h1         1 AMB       0.055200
     33 H10          8.9660    -0.7870     3.5240 h1         1 AMB       0.055200
     34 H11          8.7600    -0.6680     6.0150 hc         1 AMB       0.055700
     35 H12          8.7600     1.0850     5.9430 hc         1 AMB       0.055700
     36 H13         11.0530     1.0440     4.9000 hc         1 AMB       0.061200
     37 H14         11.0530    -0.7130     4.9720 hc         1 AMB       0.061200
     38 H15         10.9310    -0.6240     7.4720 hc         1 AMB       0.079700
     39 H16         10.9310     1.1600     7.3990 hc         1 AMB       0.079700
     40 H17         15.1460     1.1670     7.5410 h1         1 AMB       0.056200
     41 H18         15.1460    -0.6190     7.6140 h1         1 AMB       0.056200
     42 H19         14.9360    -0.5010    10.1050 hc         1 AMB       0.053700
     43 H20         14.9360     1.2530    10.0330 hc         1 AMB       0.053700
     44 H21         17.2290     1.2120     8.9940 hc         1 AMB       0.065200
     45 H22         17.2290    -0.5450     9.0660 hc         1 AMB       0.065200
     46 H23         17.0960    -0.4560    11.5660 hc         1 AMB       0.070700
     47 H24         17.0960     1.3280    11.4930 hc         1 AMB       0.070700
     48 H25         18.9410     0.4930    12.9240 ho         1 AMB       0.461000
@<TRIPOS>BOND
     1     1     2 1   
     2     1    23 1   
     3     2     3 1   
     4     2    24 1   
     5     2    25 1   
     6     3     4 1   
     7     3    26 1   
     8     3    27 1   
     9     4     5 1   
    10     4    28 1   
    11     4    29 1   
    12     5     6 1   
    13     5    30 1   
    14     5    31 1   
    15     6     7 1   
    16     6     7 1   
    17     6     8 1   
    18     8     9 1   
    19     9    10 1   
    20     9    32 1   
    21     9    33 1   
    22    10    11 1   
    23    10    34 1   
    24    10    35 1   
    25    11    12 1   
    26    11    36 1   
    27    11    37 1   
    28    12    13 1   
    29    12    38 1   
    30    12    39 1   
    31    13    14 1   
    32    13    14 1   
    33    13    15 1   
    34    15    16 1   
    35    16    17 1   
    36    16    40 1   
    37    16    41 1   
    38    17    18 1   
    39    17    42 1   
    40    17    43 1   
    41    18    19 1   
    42    18    44 1   
    43    18    45 1   
    44    19    20 1   
    45    19    46 1   
    46    19    47 1   
    47    20    21 1   
    48    20    21 1   
    49    20    22 1   
    50    22    48 1   
@<TRIPOS>SUBSTRUCTURE
     1 AMB         1 TEMP              0 ****  ****    0 ROOT
