@<TRIPOS>MOLECULE
ACA
  129   131     1     0     0
SMALL
abcg2


@<TRIPOS>ATOM
      1 O           16.5870     1.3820     2.1810 oh         1 ACA      -0.670000
      2 C           16.0470     0.4350     3.0980 c3         1 ACA       0.183300
      3 C1          17.2000    -0.2200     3.8560 c3         1 ACA      -0.080400
      4 C2          16.7230    -1.1190     4.9950 c3         1 ACA      -0.085400
      5 C3          17.9140    -1.7260     5.7150 c3         1 ACA      -0.076400
      6 C4          17.4370    -2.6090     6.8560 c3         1 ACA      -0.080400
      7 C5          18.6310    -3.2080     7.5750 c3         1 ACA      -0.078400
      8 C6          18.1600    -4.0850     8.7210 c3         1 ACA      -0.078400
      9 C7          19.3560    -4.6820     9.4410 c3         1 ACA      -0.079400
     10 C8          18.8870    -5.5590    10.5890 c3         1 ACA      -0.079400
     11 C9          20.0820    -6.1580    11.3110 c3         1 ACA      -0.079400
     12 C10         19.6210    -7.0380    12.4630 c3         1 ACA      -0.080400
     13 C11         20.8160    -7.6340    13.1820 c3         1 ACA      -0.092100
     14 C12         15.2910    -0.6100     2.3190 c3         1 ACA      -0.167400
     15 C13         14.1280    -0.0230     1.5500 c3         1 ACA       0.595000
     16 O1          13.9030     1.1820     1.4830 os         1 ACA      -0.518000
     17 O2          13.3780    -0.9170     0.8470 os         1 ACA      -0.459000
     18 C14         13.4370    -2.2890     1.2310 c3         1 ACA       0.180300
     19 C15         13.5520    -3.1630    -0.0110 c3         1 ACA      -0.093400
     20 C16         14.7550    -4.0880     0.1690 c3         1 ACA      -0.087400
     21 C17         14.9070    -4.9890    -1.0320 c3         1 ACA      -0.075400
     22 C18         16.1140    -5.8900    -0.8540 c3         1 ACA      -0.080400
     23 C19         16.2550    -6.7860    -2.0680 c3         1 ACA      -0.078400
     24 C20         17.4590    -7.6930    -1.9060 c3         1 ACA      -0.079400
     25 C21         17.5960    -8.5890    -3.1240 c3         1 ACA      -0.078400
     26 C22         18.8020    -9.4990    -2.9640 c3         1 ACA      -0.079400
     27 C23         18.9420   -10.3970    -4.1820 c3         1 ACA      -0.079400
     28 C24         20.1480   -11.3130    -4.0310 c3         1 ACA      -0.080400
     29 C25         20.2860   -12.2080    -5.2460 c3         1 ACA      -0.092100
     30 C26         12.2360    -2.6450     2.0640 c3         1 ACA      -0.149400
     31 C27         12.0680    -1.8110     3.3310 c3         1 ACA       0.599000
     32 O3          12.7310    -0.8240     3.6360 os         1 ACA      -0.515000
     33 O4          11.0730    -2.2030     4.1620 os         1 ACA      -0.458000
     34 C28         10.6010    -3.5490     4.1110 c3         1 ACA       0.179300
     35 C29          9.0820    -3.4630     4.1130 c3         1 ACA      -0.096400
     36 C30          8.5890    -3.4360     2.6620 c3         1 ACA      -0.080400
     37 C31          7.0760    -3.4370     2.6280 c3         1 ACA      -0.079400
     38 C32          6.5800    -3.4640     1.1930 c3         1 ACA      -0.079400
     39 C33          5.0630    -3.4670     1.1830 c3         1 ACA      -0.079400
     40 C34          4.5530    -3.4900    -0.2460 c3         1 ACA      -0.079400
     41 C35          3.0350    -3.4900    -0.2520 c3         1 ACA      -0.079400
     42 C36          2.5220    -3.5130    -1.6820 c3         1 ACA      -0.079400
     43 C37          1.0020    -3.5130    -1.6920 c3         1 ACA      -0.079400
     44 C38          0.4800    -3.5360    -3.1210 c3         1 ACA      -0.080400
     45 C39         -1.0360    -3.5360    -3.1280 c3         1 ACA      -0.093100
     46 C40         11.2120    -4.3700     5.2460 c3         1 ACA      -0.149400
     47 C41         12.7340    -4.3970     5.2070 c3         1 ACA       0.588000
     48 O5          13.4470    -3.8120     4.3990 os         1 ACA      -0.512000
     49 O6          13.2960    -5.1890     6.1390 oh         1 ACA      -0.615000
     50 H           15.8070     1.7940     1.7500 ho         1 ACA       0.461000
     51 H1          15.3820     0.9570     3.7960 h1         1 ACA       0.048700
     52 H2          17.8150    -0.8050     3.1580 hc         1 ACA       0.056200
     53 H3          17.8550     0.5630     4.2500 hc         1 ACA       0.056200
     54 H4          16.0960    -1.9400     4.6280 hc         1 ACA       0.047200
     55 H5          16.1130    -0.5390     5.6970 hc         1 ACA       0.047200
     56 H6          18.5610    -0.9300     6.1010 hc         1 ACA       0.039700
     57 H7          18.5090    -2.3220     5.0110 hc         1 ACA       0.039700
     58 H8          16.7930    -3.4090     6.4700 hc         1 ACA       0.041700
     59 H9          16.8350    -2.0190     7.5580 hc         1 ACA       0.041700
     60 H10         19.2760    -2.4070     7.9580 hc         1 ACA       0.039200
     61 H11         19.2310    -3.8010     6.8730 hc         1 ACA       0.039200
     62 H12         17.5160    -4.8860     8.3380 hc         1 ACA       0.039700
     63 H13         17.5600    -3.4920     9.4220 hc         1 ACA       0.039700
     64 H14         20.0000    -3.8790     9.8220 hc         1 ACA       0.039700
     65 H15         19.9560    -5.2730     8.7390 hc         1 ACA       0.039700
     66 H16         18.2420    -6.3590    10.2050 hc         1 ACA       0.039200
     67 H17         18.2860    -4.9650    11.2880 hc         1 ACA       0.039200
     68 H18         20.7260    -5.3530    11.6900 hc         1 ACA       0.039700
     69 H19         20.6820    -6.7470    10.6070 hc         1 ACA       0.039700
     70 H20         18.9800    -7.8430    12.0850 hc         1 ACA       0.038200
     71 H21         19.0240    -6.4490    13.1680 hc         1 ACA       0.038200
     72 H22         21.4130    -8.2450    12.4980 hc         1 ACA       0.032367
     73 H23         20.4830    -8.2670    14.0090 hc         1 ACA       0.032367
     74 H24         21.4570    -6.8440    13.5860 hc         1 ACA       0.032367
     75 H25         14.9330    -1.3290     3.0560 hc         1 ACA       0.099700
     76 H26         15.9500    -1.1100     1.5980 hc         1 ACA       0.099700
     77 H27         14.3020    -2.5380     1.8370 h1         1 ACA       0.075700
     78 H28         12.6510    -3.7720    -0.1540 hc         1 ACA       0.059700
     79 H29         13.6860    -2.5540    -0.9110 hc         1 ACA       0.059700
     80 H30         14.6370    -4.6940     1.0790 hc         1 ACA       0.049700
     81 H31         15.6680    -3.4910     0.3020 hc         1 ACA       0.049700
     82 H32         15.0240    -4.3800    -1.9360 hc         1 ACA       0.041200
     83 H33         14.0010    -5.5950    -1.1550 hc         1 ACA       0.041200
     84 H34         16.0010    -6.4980     0.0520 hc         1 ACA       0.043200
     85 H35         17.0210    -5.2850    -0.7260 hc         1 ACA       0.043200
     86 H36         16.3660    -6.1730    -2.9720 hc         1 ACA       0.039200
     87 H37         15.3460    -7.3870    -2.1940 hc         1 ACA       0.039200
     88 H38         17.3460    -8.3040    -1.0020 hc         1 ACA       0.040200
     89 H39         18.3660    -7.0900    -1.7800 hc         1 ACA       0.040200
     90 H40         17.7070    -7.9750    -4.0270 hc         1 ACA       0.039700
     91 H41         16.6870    -9.1890    -3.2490 hc         1 ACA       0.039700
     92 H42         18.6890   -10.1090    -2.0600 hc         1 ACA       0.039700
     93 H43         19.7090    -8.8950    -2.8380 hc         1 ACA       0.039700
     94 H44         19.0500    -9.7820    -5.0840 hc         1 ACA       0.039700
     95 H45         18.0310   -10.9960    -4.3060 hc         1 ACA       0.039700
     96 H46         20.0380   -11.9290    -3.1300 hc         1 ACA       0.038700
     97 H47         21.0580   -10.7150    -3.9080 hc         1 ACA       0.038700
     98 H48         19.3930   -12.8290    -5.3720 hc         1 ACA       0.032367
     99 H49         21.1520   -12.8650    -5.1360 hc         1 ACA       0.032367
    100 H50         20.4170   -11.6100    -6.1530 hc         1 ACA       0.032367
    101 H51         12.4270    -3.6910     2.3190 hc         1 ACA       0.110200
    102 H52         11.3160    -2.5710     1.4800 hc         1 ACA       0.110200
    103 H53         10.8610    -4.0650     3.1920 h1         1 ACA       0.076700
    104 H54          8.6560    -4.3320     4.6190 hc         1 ACA       0.063700
    105 H55          8.7320    -2.5550     4.6220 hc         1 ACA       0.063700
    106 H56          8.9610    -4.3200     2.1260 hc         1 ACA       0.041200
    107 H57          8.9760    -2.5570     2.1300 hc         1 ACA       0.041200
    108 H58          6.6950    -2.5470     3.1400 hc         1 ACA       0.044200
    109 H59          6.6980    -4.3150     3.1660 hc         1 ACA       0.044200
    110 H60          6.9590    -4.3570     0.6790 hc         1 ACA       0.040700
    111 H61          6.9580    -2.5910     0.6470 hc         1 ACA       0.040700
    112 H62          4.6860    -2.5760     1.7000 hc         1 ACA       0.041200
    113 H63          4.6880    -4.3410     1.7280 hc         1 ACA       0.041200
    114 H64          4.9300    -4.3820    -0.7620 hc         1 ACA       0.039700
    115 H65          4.9290    -2.6150    -0.7900 hc         1 ACA       0.039700
    116 H66          2.6600    -2.5990     0.2660 hc         1 ACA       0.040200
    117 H67          2.6600    -4.3650     0.2940 hc         1 ACA       0.040200
    118 H68          2.9000    -4.4050    -2.1970 hc         1 ACA       0.039200
    119 H69          2.9000    -2.6380    -2.2260 hc         1 ACA       0.039200
    120 H70          0.6300    -2.6220    -1.1710 hc         1 ACA       0.039700
    121 H71          0.6300    -4.3870    -1.1430 hc         1 ACA       0.039700
    122 H72          0.8510    -4.4270    -3.6400 hc         1 ACA       0.038200
    123 H73          0.8510    -2.6620    -3.6680 hc         1 ACA       0.038200
    124 H74         -1.4250    -4.4150    -2.6030 hc         1 ACA       0.032700
    125 H75         -1.4100    -3.5530    -4.1550 hc         1 ACA       0.032700
    126 H76         -1.4250    -2.6410    -2.6320 hc         1 ACA       0.032700
    127 H77         10.8630    -5.4010     5.1150 hc         1 ACA       0.093700
    128 H78         10.8850    -3.9840     6.2140 hc         1 ACA       0.093700
    129 H79         12.6780    -5.6390     6.7420 ho         1 ACA       0.468000
@<TRIPOS>BOND
     1     1     2 1   
     2     1    50 1   
     3     2     3 1   
     4     2    14 1   
     5     2    51 1   
     6     3     4 1   
     7     3    52 1   
     8     3    53 1   
     9     4     5 1   
    10     4    54 1   
    11     4    55 1   
    12     5     6 1   
    13     5    56 1   
    14     5    57 1   
    15     6     7 1   
    16     6    58 1   
    17     6    59 1   
    18     7     8 1   
    19     7    60 1   
    20     7    61 1   
    21     8     9 1   
    22     8    62 1   
    23     8    63 1   
    24     9    10 1   
    25     9    64 1   
    26     9    65 1   
    27    10    11 1   
    28    10    66 1   
    29    10    67 1   
    30    11    12 1   
    31    11    68 1   
    32    11    69 1   
    33    12    13 1   
    34    12    70 1   
    35    12    71 1   
    36    13    72 1   
    37    13    73 1   
    38    13    74 1   
    39    14    15 1   
    40    14    75 1   
    41    14    76 1   
    42    15    16 1   
    43    15    16 1   
    44    15    17 1   
    45    17    18 1   
    46    18    19 1   
    47    18    30 1   
    48    18    77 1   
    49    19    20 1   
    50    19    78 1   
    51    19    79 1   
    52    20    21 1   
    53    20    80 1   
    54    20    81 1   
    55    21    22 1   
    56    21    82 1   
    57    21    83 1   
    58    22    23 1   
    59    22    84 1   
    60    22    85 1   
    61    23    24 1   
    62    23    86 1   
    63    23    87 1   
    64    24    25 1   
    65    24    88 1   
    66    24    89 1   
    67    25    26 1   
    68    25    90 1   
    69    25    91 1   
    70    26    27 1   
    71    26    92 1   
    72    26    93 1   
    73    27    28 1   
    74    27    94 1   
    75    27    95 1   
    76    28    29 1   
    77    28    96 1   
    78    28    97 1   
    79    29    98 1   
    80    29    99 1   
    81    29   100 1   
    82    30    31 1   
    83    30   101 1   
    84    30   102 1   
    85    31    32 1   
    86    31    32 1   
    87    31    33 1   
    88    33    34 1   
    89    34    35 1   
    90    34    46 1   
    91    34   103 1   
    92    35    36 1   
    93    35   104 1   
    94    35   105 1   
    95    36    37 1   
    96    36   106 1   
    97    36   107 1   
    98    37    38 1   
    99    37   108 1   
   100    37   109 1   
   101    38    39 1   
   102    38   110 1   
   103    38   111 1   
   104    39    40 1   
   105    39   112 1   
   106    39   113 1   
   107    40    41 1   
   108    40   114 1   
   109    40   115 1   
   110    41    42 1   
   111    41   116 1   
   112    41   117 1   
   113    42    43 1   
   114    42   118 1   
   115    42   119 1   
   116    43    44 1   
   117    43   120 1   
   118    43   121 1   
   119    44    45 1   
   120    44   122 1   
   121    44   123 1   
   122    45   124 1   
   123    45   125 1   
   124    45   126 1   
   125    46    47 1   
   126    46   127 1   
   127    46   128 1   
   128    47    48 1   
   129    47    48 1   
   130    47    49 1   
   131    49   129 1   
@<TRIPOS>SUBSTRUCTURE
     1 ACA         1 TEMP              0 ****  ****    0 ROOT
