@<TRIPOS>MOLECULE
AGY
   84   101     1     0     0
SMALL
abcg2


@<TRIPOS>ATOM
      1 O           16.7710    -1.0440    -1.4210 oh         1 AGY      -0.330000
      2 C           16.4040    -0.0530    -2.3720 c3         1 AGY       0.049000
      3 C1          17.6260     0.8030    -2.7010 c3         1 AGY      -0.157000
      4 C2          17.8030     0.9150    -4.2110 c3         1 AGY      -0.140000
      5 C3          19.0460     1.6850    -4.5660 c3         1 AGY      -0.024000
      6 C4          18.9750     2.8510    -5.3370 c3         1 AGY      -0.140000
      7 C5          20.1480     3.4790    -5.7570 c3         1 AGY      -0.066000
      8 C6          21.3870     2.9950    -5.3180 c3         1 AGY      -0.136000
      9 N           22.6110     3.7350    -5.6390 n4         1 AGY       0.568000
     10 O1          22.5010     4.7610    -6.3260 os         1 AGY      -0.361000
     11 O2          23.6810     3.3070    -5.1840 o          1 AGY      -0.359000
     12 C7          21.4680     1.8460    -4.5250 c3         1 AGY      -0.064000
     13 C8          20.2960     1.1920    -4.1630 c3         1 AGY      -0.140000
     14 C9          15.3500     0.8370    -1.7770 c3         1 AGY      -0.250000
     15 C10         14.1070     0.0660    -1.3990 c3         1 AGY       0.306000
     16 O3          14.0220    -1.1570    -1.4720 os         1 AGY      -0.318000
     17 O4          13.1100     0.8140    -0.8510 os         1 AGY      -0.270000
     18 C11         13.0510     2.1890    -1.2120 c3         1 AGY       0.046000
     19 C12         12.9090     3.0510     0.0320 c3         1 AGY      -0.169000
     20 C13         14.1110     3.9990     0.0890 c3         1 AGY      -0.134000
     21 C14         14.0610     4.8720     1.3010 c3         1 AGY      -0.030000
     22 C15         14.0050     6.2630     1.1780 c3         1 AGY      -0.140000
     23 C16         14.0680     7.0580     2.3190 c3         1 AGY      -0.064000
     24 C17         14.0850     6.4510     3.5830 c3         1 AGY      -0.133000
     25 N1          14.0010     7.2810     4.7860 n4         1 AGY       0.568000
     26 O5          13.9480     8.5100     4.6340 os         1 AGY      -0.358000
     27 O6          13.9580     6.7040     5.8820 o          1 AGY      -0.357000
     28 C18         14.1190     5.0590     3.7120 c3         1 AGY      -0.064000
     29 C19         14.1190     4.2750     2.5680 c3         1 AGY      -0.135000
     30 C20         11.9460     2.4290    -2.1910 c3         1 AGY      -0.229000
     31 C21         12.0480     1.6010    -3.4590 c3         1 AGY       0.317000
     32 O7          12.8770     0.7150    -3.6640 os         1 AGY      -0.331000
     33 O8          11.1170     1.8880    -4.4040 os         1 AGY      -0.265000
     34 C22         10.6250     3.2310    -4.4980 c3         1 AGY       0.043000
     35 C23          9.1080     3.1560    -4.4930 c3         1 AGY      -0.169000
     36 C24          8.6000     3.4000    -3.0640 c3         1 AGY      -0.133000
     37 C25          7.1040     3.3800    -2.9990 c3         1 AGY      -0.032000
     38 C26          6.3880     4.5180    -2.6150 c3         1 AGY      -0.138000
     39 C27          5.0050     4.4450    -2.4640 c3         1 AGY      -0.063000
     40 C28          4.3370     3.2580    -2.7950 c3         1 AGY      -0.132000
     41 N2           2.8730     3.2230    -2.7830 n4         1 AGY       0.568000
     42 O9           2.2760     4.2550    -2.4450 os         1 AGY      -0.356000
     43 O10          2.3190     2.1730    -3.1400 o          1 AGY      -0.356000
     44 C29          5.0470     2.1210    -3.1960 c3         1 AGY      -0.064000
     45 C30          6.4310     2.1850    -3.2850 c3         1 AGY      -0.139000
     46 C31         11.2400     3.9450    -5.6960 c3         1 AGY      -0.230000
     47 C32         12.7550     3.9900    -5.6030 c3         1 AGY       0.304000
     48 O11         13.4270     3.5360    -4.6800 os         1 AGY      -0.325000
     49 O12         13.3460     4.6650    -6.6060 oh         1 AGY      -0.274000
     50 H           15.9600    -1.5810    -1.2800 ho         1 AGY       0.223000
     51 H1          16.0070    -0.5530    -3.2640 h1         1 AGY       0.089000
     52 H2          17.5340     1.8210    -2.2900 hc         1 AGY       0.103500
     53 H3          18.5120     0.3700    -2.2270 hc         1 AGY       0.103500
     54 H4          16.9180     1.3780    -4.6660 hc         1 AGY       0.103000
     55 H5          17.8900    -0.0870    -4.6500 hc         1 AGY       0.103000
     56 H6          18.0110     3.2720    -5.6160 hc         1 AGY       0.153000
     57 H7          20.0790     4.3380    -6.4220 hc         1 AGY       0.170000
     58 H8          22.4210     1.4450    -4.1890 hc         1 AGY       0.171000
     59 H9          20.3580     0.2910    -3.5530 hc         1 AGY       0.150000
     60 H10         15.1520     1.5740    -2.5610 hc         1 AGY       0.140000
     61 H11         15.7180     1.3230    -0.8640 hc         1 AGY       0.140000
     62 H12         13.9310     2.5530    -1.7270 h1         1 AGY       0.116000
     63 H13         11.9890     3.6470     0.0060 hc         1 AGY       0.108000
     64 H14         12.8620     2.4200     0.9260 hc         1 AGY       0.108000
     65 H15         14.1580     4.6080    -0.8240 hc         1 AGY       0.100000
     66 H16         15.0490     3.4290     0.1200 hc         1 AGY       0.100000
     67 H17         13.9170     6.7330     0.2000 hc         1 AGY       0.147000
     68 H18         14.1020     8.1400     2.2100 hc         1 AGY       0.172000
     69 H19         14.1510     4.5700     4.6830 hc         1 AGY       0.173000
     70 H20         14.1570     3.1910     2.6630 hc         1 AGY       0.153000
     71 H21         12.0920     3.4870    -2.4230 hc         1 AGY       0.151000
     72 H22         10.9720     2.2580    -1.7330 hc         1 AGY       0.151000
     73 H23         10.8930     3.8530    -3.6550 h1         1 AGY       0.118000
     74 H24          8.6850     3.9150    -5.1550 hc         1 AGY       0.105500
     75 H25          8.7720     2.1710    -4.8440 hc         1 AGY       0.105500
     76 H26          8.9820     4.3580    -2.6860 hc         1 AGY       0.101000
     77 H27          8.9680     2.6340    -2.3710 hc         1 AGY       0.101000
     78 H28          6.8970     5.4630    -2.4310 hc         1 AGY       0.148000
     79 H29          4.4660     5.3140    -2.0950 hc         1 AGY       0.173000
     80 H30          4.5480     1.1870    -3.4380 hc         1 AGY       0.173000
     81 H31          6.9880     1.3000    -3.5870 hc         1 AGY       0.151000
     82 H32         10.8870     4.9820    -5.6640 hc         1 AGY       0.135000
     83 H33         10.9340     3.4720    -6.6310 hc         1 AGY       0.135000
     84 H34         12.7430     5.0480    -7.2700 ho         1 AGY       0.231000
@<TRIPOS>BOND
     1     1     2 1   
     2     1    50 1   
     3     2     3 1   
     4     2    14 1   
     5     2    51 1   
     6     3     4 1   
     7     3    52 1   
     8     3    53 1   
     9     4     5 1   
    10     4    54 1   
    11     4    55 1   
    12     5     6 1   
    13     5     6 1   
    14     5    13 1   
    15     6     7 1   
    16     6    56 1   
    17     7     8 1   
    18     7     8 1   
    19     7    57 1   
    20     8     9 1   
    21     8    12 1   
    22     9    10 1   
    23     9    10 1   
    24     9    11 1   
    25    12    13 1   
    26    12    13 1   
    27    12    58 1   
    28    13    59 1   
    29    14    15 1   
    30    14    60 1   
    31    14    61 1   
    32    15    16 1   
    33    15    16 1   
    34    15    17 1   
    35    17    18 1   
    36    18    19 1   
    37    18    30 1   
    38    18    62 1   
    39    19    20 1   
    40    19    63 1   
    41    19    64 1   
    42    20    21 1   
    43    20    65 1   
    44    20    66 1   
    45    21    22 1   
    46    21    22 1   
    47    21    29 1   
    48    22    23 1   
    49    22    67 1   
    50    23    24 1   
    51    23    24 1   
    52    23    68 1   
    53    24    25 1   
    54    24    28 1   
    55    25    26 1   
    56    25    26 1   
    57    25    27 1   
    58    28    29 1   
    59    28    29 1   
    60    28    69 1   
    61    29    70 1   
    62    30    31 1   
    63    30    71 1   
    64    30    72 1   
    65    31    32 1   
    66    31    32 1   
    67    31    33 1   
    68    33    34 1   
    69    34    35 1   
    70    34    46 1   
    71    34    73 1   
    72    35    36 1   
    73    35    74 1   
    74    35    75 1   
    75    36    37 1   
    76    36    76 1   
    77    36    77 1   
    78    37    38 1   
    79    37    38 1   
    80    37    45 1   
    81    38    39 1   
    82    38    78 1   
    83    39    40 1   
    84    39    40 1   
    85    39    79 1   
    86    40    41 1   
    87    40    44 1   
    88    41    42 1   
    89    41    42 1   
    90    41    43 1   
    91    44    45 1   
    92    44    45 1   
    93    44    80 1   
    94    45    81 1   
    95    46    47 1   
    96    46    82 1   
    97    46    83 1   
    98    47    48 1   
    99    47    48 1   
   100    47    49 1   
   101    49    84 1   
@<TRIPOS>SUBSTRUCTURE
     1 AGY         1 TEMP              0 ****  ****    0 ROOT
