@<TRIPOS>MOLECULE
AAY
   57    59     1     0     0
SMALL
abcg2


@<TRIPOS>ATOM
      1 O           13.7260    -1.2190     3.5010 oh         1 AAY      -0.668000
      2 C           14.0690    -2.2230     2.5420 c3         1 AAY       0.181300
      3 C1          15.5730    -2.5150     2.6190 c3         1 AAY      -0.077400
      4 C2          16.1380    -2.2740     4.0170 c3         1 AAY      -0.079400
      5 C3          17.6240    -2.5590     4.0710 c3         1 AAY      -0.092100
      6 C4          13.6890    -1.7180     1.1540 c3         1 AAY      -0.166400
      7 C5          12.2050    -1.4590     1.0850 c3         1 AAY       0.596000
      8 O1          11.4640    -1.6060     2.0560 os         1 AAY      -0.518000
      9 O2          11.7080    -0.9820    -0.0770 os         1 AAY      -0.457000
     10 C6          12.5170    -0.6640    -1.2300 c3         1 AAY       0.178300
     11 C7          12.6240     0.8670    -1.3620 c3         1 AAY      -0.090400
     12 C8          11.5520     1.6240    -0.5760 c3         1 AAY      -0.081400
     13 C9          11.7000     3.1220    -0.7380 c3         1 AAY      -0.093100
     14 C10         11.8430    -1.2750    -2.4560 c3         1 AAY      -0.145400
     15 C11         11.7420    -2.7820    -2.3230 c3         1 AAY       0.599000
     16 O3          12.1320    -3.3920    -1.3310 os         1 AAY      -0.516000
     17 O4          11.1800    -3.4670    -3.3510 os         1 AAY      -0.454000
     18 C12         10.6730    -2.8440    -4.5520 c3         1 AAY       0.177300
     19 C13          9.1350    -2.8660    -4.5170 c3         1 AAY      -0.094400
     20 C14          8.5630    -2.8970    -3.0980 c3         1 AAY      -0.083400
     21 C15          7.0500    -2.8990    -3.1010 c3         1 AAY      -0.092100
     22 C16         11.2270    -3.6200    -5.7560 c3         1 AAY      -0.148400
     23 C17         12.7380    -3.5720    -5.7500 c3         1 AAY       0.587000
     24 O5          13.4120    -2.9670    -4.9220 os         1 AAY      -0.510000
     25 O6          13.3170    -4.2330    -6.7730 oh         1 AAY      -0.615000
     26 H           12.7470    -1.1690     3.5060 ho         1 AAY       0.461000
     27 H1          13.5140    -3.1360     2.7930 h1         1 AAY       0.048700
     28 H2          15.7550    -3.5510     2.3030 hc         1 AAY       0.051700
     29 H3          16.1200    -1.8850     1.9060 hc         1 AAY       0.051700
     30 H4          15.6090    -2.8970     4.7460 hc         1 AAY       0.047200
     31 H5          15.9860    -1.2270     4.3040 hc         1 AAY       0.047200
     32 H6          17.8290    -3.6040     3.8240 hc         1 AAY       0.032700
     33 H7          18.0040    -2.3550     5.0760 hc         1 AAY       0.032700
     34 H8          18.1640    -1.9200     3.3650 hc         1 AAY       0.032700
     35 H9          13.9720    -2.4660     0.4080 hc         1 AAY       0.098700
     36 H10         14.2090    -0.7700     0.9650 hc         1 AAY       0.098700
     37 H11         13.5250    -1.0800    -1.1670 h1         1 AAY       0.073700
     38 H12         13.6110     1.1770    -0.9950 hc         1 AAY       0.055700
     39 H13         12.5960     1.1620    -2.4190 hc         1 AAY       0.055700
     40 H14         11.6330     1.3900     0.4920 hc         1 AAY       0.049200
     41 H15         10.5540     1.3130    -0.9080 hc         1 AAY       0.049200
     42 H16         12.6800     3.4530    -0.3820 hc         1 AAY       0.035033
     43 H17         10.9310     3.6380    -0.1540 hc         1 AAY       0.035033
     44 H18         11.5920     3.4120    -1.7870 hc         1 AAY       0.035033
     45 H19         12.4580    -1.0360    -3.3290 hc         1 AAY       0.108700
     46 H20         10.8420    -0.8460    -2.5720 hc         1 AAY       0.108700
     47 H21         10.9990    -1.8050    -4.6390 h1         1 AAY       0.077700
     48 H22          8.7600    -1.9860    -5.0550 hc         1 AAY       0.058200
     49 H23          8.7560    -3.7380    -5.0650 hc         1 AAY       0.058200
     50 H24          8.9170    -2.0340    -2.5260 hc         1 AAY       0.046200
     51 H25          8.9030    -3.8010    -2.5770 hc         1 AAY       0.046200
     52 H26          6.6640    -1.9940    -3.5770 hc         1 AAY       0.037700
     53 H27          6.6780    -2.9370    -2.0730 hc         1 AAY       0.037700
     54 H28          6.6680    -3.7720    -3.6390 hc         1 AAY       0.037700
     55 H29         10.8620    -3.1650    -6.6840 hc         1 AAY       0.092700
     56 H30         10.9070    -4.6680    -5.7120 hc         1 AAY       0.092700
     57 H31         12.7120    -4.6750    -7.3960 ho         1 AAY       0.467000
@<TRIPOS>BOND
     1     1     2 1   
     2     1    26 1   
     3     2     3 1   
     4     2     6 1   
     5     2    27 1   
     6     3     4 1   
     7     3    28 1   
     8     3    29 1   
     9     4     5 1   
    10     4    30 1   
    11     4    31 1   
    12     5    32 1   
    13     5    33 1   
    14     5    34 1   
    15     6     7 1   
    16     6    35 1   
    17     6    36 1   
    18     7     8 1   
    19     7     8 1   
    20     7     9 1   
    21     9    10 1   
    22    10    11 1   
    23    10    14 1   
    24    10    37 1   
    25    11    12 1   
    26    11    38 1   
    27    11    39 1   
    28    12    13 1   
    29    12    40 1   
    30    12    41 1   
    31    13    42 1   
    32    13    43 1   
    33    13    44 1   
    34    14    15 1   
    35    14    45 1   
    36    14    46 1   
    37    15    16 1   
    38    15    16 1   
    39    15    17 1   
    40    17    18 1   
    41    18    19 1   
    42    18    22 1   
    43    18    47 1   
    44    19    20 1   
    45    19    48 1   
    46    19    49 1   
    47    20    21 1   
    48    20    50 1   
    49    20    51 1   
    50    21    52 1   
    51    21    53 1   
    52    21    54 1   
    53    22    23 1   
    54    22    55 1   
    55    22    56 1   
    56    23    24 1   
    57    23    24 1   
    58    23    25 1   
    59    25    57 1   
@<TRIPOS>SUBSTRUCTURE
     1 AAY         1 TEMP              0 ****  ****    0 ROOT
