@<TRIPOS>MOLECULE
AKQ
   87   101     1     0     0
SMALL
abcg2


@<TRIPOS>ATOM
      1 O           12.2840     2.6560    -3.3010 oh         1 AKQ      -0.669000
      2 C           13.2630     2.4480    -2.2840 c3         1 AKQ       0.180300
      3 C1          14.4890     1.8610    -2.9570 c3         1 AKQ      -0.074400
      4 C2          15.3110     2.9170    -3.6990 c3         1 AKQ      -0.043400
      5 C3          16.5280     2.3330    -4.3780 c3         1 AKQ      -0.076000
      6 C4          17.4040     3.1750    -5.0720 c3         1 AKQ      -0.084700
      7 C5          18.5180     2.6440    -5.7270 c3         1 AKQ      -0.090700
      8 C6          18.7730     1.2680    -5.6960 c3         1 AKQ      -0.073000
      9 C7          19.9420     0.6700    -6.4100 c3         1 AKQ      -0.060100
     10 C8          17.9120     0.4290    -4.9940 c3         1 AKQ      -0.090700
     11 C9          16.8060     0.9580    -4.3460 c3         1 AKQ      -0.083700
     12 C10         12.7390     1.4650    -1.2380 c3         1 AKQ      -0.166400
     13 C11         11.5230     2.0430    -0.5530 c3         1 AKQ       0.596000
     14 O1          11.0310     3.1150    -0.9020 os         1 AKQ      -0.516000
     15 O2          10.9210     1.2980     0.4030 os         1 AKQ      -0.460000
     16 C12         11.5530     0.1520     1.0020 c3         1 AKQ       0.175300
     17 C13         11.0790    -1.0820     0.2440 c3         1 AKQ      -0.087400
     18 C14          9.6430    -1.5190     0.5620 c3         1 AKQ      -0.043400
     19 C15          9.2040    -2.7350    -0.2040 c3         1 AKQ      -0.082000
     20 C16          7.9250    -3.2580     0.0190 c3         1 AKQ      -0.081700
     21 C17          7.5160    -4.4050    -0.6580 c3         1 AKQ      -0.089700
     22 C18          8.3790    -5.0400    -1.5580 c3         1 AKQ      -0.069000
     23 C19          7.9740    -6.2770    -2.2900 c3         1 AKQ      -0.062100
     24 C20          9.6500    -4.5170    -1.7820 c3         1 AKQ      -0.089700
     25 C21         10.0560    -3.3790    -1.1100 c3         1 AKQ      -0.083700
     26 C22         11.1620     0.0830     2.4720 c3         1 AKQ      -0.139400
     27 C23         11.6530     1.2650     3.2610 c3         1 AKQ       0.596000
     28 O3          12.2640     2.1960     2.7440 os         1 AKQ      -0.512000
     29 O4          11.3130     1.2990     4.5770 os         1 AKQ      -0.451000
     30 C24         10.8690     0.1310     5.3180 c3         1 AKQ       0.173300
     31 C25          9.3470     0.1440     5.3270 c3         1 AKQ      -0.107400
     32 C26          8.7400    -1.1170     4.7050 c3         1 AKQ      -0.039400
     33 C27          7.2360    -1.0920     4.6740 c3         1 AKQ      -0.088000
     34 C28          6.5440    -2.1600     4.0920 c3         1 AKQ      -0.080700
     35 C29          5.1500    -2.1470     4.0490 c3         1 AKQ      -0.085700
     36 C30          4.4330    -1.0690     4.5810 c3         1 AKQ      -0.065000
     37 C31          2.9400    -1.0220     4.5390 c3         1 AKQ      -0.063100
     38 C32          5.1210    -0.0040     5.1580 c3         1 AKQ      -0.089700
     39 C33          6.5040    -0.0170     5.1990 c3         1 AKQ      -0.082700
     40 C34         11.4110     0.2390     6.7510 c3         1 AKQ      -0.133400
     41 C35         12.9170     0.1950     6.7240 c3         1 AKQ       0.585000
     42 O5          13.5870     0.0700     5.7030 os         1 AKQ      -0.498000
     43 O6          13.4920     0.2550     7.9420 oh         1 AKQ      -0.616000
     44 H           11.5210     3.0860    -2.8590 ho         1 AKQ       0.462000
     45 H1          13.5050     3.4100    -1.8210 h1         1 AKQ       0.048700
     46 H2          15.1270     1.3780    -2.2070 hc         1 AKQ       0.056700
     47 H3          14.1620     1.0930    -3.6740 hc         1 AKQ       0.056700
     48 H4          15.6420     3.6780    -2.9800 hc         1 AKQ       0.056200
     49 H5          14.6870     3.4170    -4.4500 hc         1 AKQ       0.056200
     50 H6          17.2210     4.2470    -5.1150 hc         1 AKQ       0.090700
     51 H7          19.1840     3.3130    -6.2670 hc         1 AKQ       0.090700
     52 H8          20.5280     1.4360    -6.9230 hc         1 AKQ       0.043367
     53 H9          19.5900    -0.0490    -7.1570 hc         1 AKQ       0.043367
     54 H10         20.5920     0.1570    -5.6940 hc         1 AKQ       0.043367
     55 H11         18.0840    -0.6430    -4.9490 hc         1 AKQ       0.090700
     56 H12         16.1660     0.2550    -3.8230 hc         1 AKQ       0.095700
     57 H13         13.5370     1.2860    -0.5110 hc         1 AKQ       0.099700
     58 H14         12.4650     0.5280    -1.7330 hc         1 AKQ       0.099700
     59 H15         12.6420     0.2190     0.9410 h1         1 AKQ       0.077700
     60 H16         11.1350    -0.8830    -0.8320 hc         1 AKQ       0.060200
     61 H17         11.7680    -1.9060     0.4700 hc         1 AKQ       0.060200
     62 H18          8.9460    -0.6920     0.3740 hc         1 AKQ       0.056200
     63 H19          9.5730    -1.7910     1.6200 hc         1 AKQ       0.056200
     64 H20          7.2440    -2.7790     0.7210 hc         1 AKQ       0.095700
     65 H21          6.5200    -4.8010    -0.4780 hc         1 AKQ       0.092700
     66 H22          6.9590    -6.5810    -2.0220 hc         1 AKQ       0.044700
     67 H23          8.6570    -7.0940    -2.0360 hc         1 AKQ       0.044700
     68 H24          8.0090    -6.0960    -3.3680 hc         1 AKQ       0.044700
     69 H25         10.3390    -4.9860    -2.4790 hc         1 AKQ       0.092700
     70 H26         11.0580    -3.0180    -1.3140 hc         1 AKQ       0.090700
     71 H27         11.5720    -0.8460     2.8810 hc         1 AKQ       0.099700
     72 H28         10.0740     0.1130     2.5400 hc         1 AKQ       0.099700
     73 H29         11.2600    -0.7880     4.8750 h1         1 AKQ       0.078700
     74 H30          8.9810     0.2220     6.3600 hc         1 AKQ       0.066200
     75 H31          8.9840     1.0310     4.7890 hc         1 AKQ       0.066200
     76 H32          9.0860    -2.0030     5.2500 hc         1 AKQ       0.048700
     77 H33          9.0810    -1.2300     3.6760 hc         1 AKQ       0.048700
     78 H34          7.0820    -3.0040     3.6640 hc         1 AKQ       0.096700
     79 H35          4.6240    -2.9850     3.5970 hc         1 AKQ       0.097700
     80 H36          2.5300    -1.9140     4.0580 hc         1 AKQ       0.045700
     81 H37          2.6150    -0.1440     3.9720 hc         1 AKQ       0.045700
     82 H38          2.5440    -0.9630     5.5570 hc         1 AKQ       0.045700
     83 H39          4.5920     0.8470     5.5770 hc         1 AKQ       0.092700
     84 H40          6.9860     0.8450     5.6480 hc         1 AKQ       0.087700
     85 H41         11.0490    -0.6140     7.3380 hc         1 AKQ       0.092700
     86 H42         11.0810     1.1720     7.2230 hc         1 AKQ       0.092700
     87 H43         12.8850     0.3310     8.7010 ho         1 AKQ       0.467000
@<TRIPOS>BOND
     1     1     2 1   
     2     1    44 1   
     3     2     3 1   
     4     2    12 1   
     5     2    45 1   
     6     3     4 1   
     7     3    46 1   
     8     3    47 1   
     9     4     5 1   
    10     4    48 1   
    11     4    49 1   
    12     5     6 1   
    13     5     6 1   
    14     5    11 1   
    15     6     7 1   
    16     6    50 1   
    17     7     8 1   
    18     7     8 1   
    19     7    51 1   
    20     8     9 1   
    21     8    10 1   
    22     9    52 1   
    23     9    53 1   
    24     9    54 1   
    25    10    11 1   
    26    10    11 1   
    27    10    55 1   
    28    11    56 1   
    29    12    13 1   
    30    12    57 1   
    31    12    58 1   
    32    13    14 1   
    33    13    14 1   
    34    13    15 1   
    35    15    16 1   
    36    16    17 1   
    37    16    26 1   
    38    16    59 1   
    39    17    18 1   
    40    17    60 1   
    41    17    61 1   
    42    18    19 1   
    43    18    62 1   
    44    18    63 1   
    45    19    20 1   
    46    19    20 1   
    47    19    25 1   
    48    20    21 1   
    49    20    64 1   
    50    21    22 1   
    51    21    22 1   
    52    21    65 1   
    53    22    23 1   
    54    22    24 1   
    55    23    66 1   
    56    23    67 1   
    57    23    68 1   
    58    24    25 1   
    59    24    25 1   
    60    24    69 1   
    61    25    70 1   
    62    26    27 1   
    63    26    71 1   
    64    26    72 1   
    65    27    28 1   
    66    27    28 1   
    67    27    29 1   
    68    29    30 1   
    69    30    31 1   
    70    30    40 1   
    71    30    73 1   
    72    31    32 1   
    73    31    74 1   
    74    31    75 1   
    75    32    33 1   
    76    32    76 1   
    77    32    77 1   
    78    33    34 1   
    79    33    34 1   
    80    33    39 1   
    81    34    35 1   
    82    34    78 1   
    83    35    36 1   
    84    35    36 1   
    85    35    79 1   
    86    36    37 1   
    87    36    38 1   
    88    37    80 1   
    89    37    81 1   
    90    37    82 1   
    91    38    39 1   
    92    38    39 1   
    93    38    83 1   
    94    39    84 1   
    95    40    41 1   
    96    40    85 1   
    97    40    86 1   
    98    41    42 1   
    99    41    42 1   
   100    41    43 1   
   101    43    87 1   
@<TRIPOS>SUBSTRUCTURE
     1 AKQ         1 TEMP              0 ****  ****    0 ROOT
