@<TRIPOS>MOLECULE
AKE
   93    95     1     0     0
SMALL
abcg2


@<TRIPOS>ATOM
      1 O           13.9820    -1.8240     3.2940 oh         1 AKE      -0.668000
      2 C           14.2400    -2.6970     2.1910 c3         1 AKE       0.181300
      3 C1          15.7270    -3.0740     2.1670 c3         1 AKE      -0.076400
      4 C2          16.3330    -2.9840     3.5630 c3         1 AKE      -0.078400
      5 C3          17.8240    -3.2190     3.5260 c3         1 AKE      -0.078400
      6 C4          18.4080    -3.0450     4.9240 c3         1 AKE      -0.075400
      7 C5          19.9250    -3.2470     4.9220 c3         1 AKE      -0.067700
      8 C6          20.6200    -2.2340     4.0110 c3         1 AKE      -0.089600
      9 C7          20.4610    -3.1160     6.3440 c3         1 AKE      -0.089600
     10 C8          13.8150    -1.9750     0.9180 c3         1 AKE      -0.167400
     11 C9          12.3240    -1.6160     0.9890 c3         1 AKE       0.596000
     12 O1          11.6440    -1.9060     1.9730 os         1 AKE      -0.519000
     13 O2          11.7590    -0.8810    -0.0180 os         1 AKE      -0.459000
     14 C10         12.4990    -0.6860    -1.2110 c3         1 AKE       0.180300
     15 C11         12.9130     0.7700    -1.4070 c3         1 AKE      -0.094400
     16 C12         14.1440     0.5920    -2.2680 c3         1 AKE      -0.086400
     17 C13         15.1770     1.6460    -2.2070 c3         1 AKE      -0.076400
     18 C14         16.3540     1.0350    -2.9680 c3         1 AKE      -0.077400
     19 C15         17.5060     2.0080    -3.0040 c3         1 AKE      -0.067700
     20 C16         17.9660     2.3230    -1.5820 c3         1 AKE      -0.090100
     21 C17         18.6410     1.4110    -3.8200 c3         1 AKE      -0.090100
     22 C18         11.8360    -1.1990    -2.4770 c3         1 AKE      -0.148400
     23 C19         11.8080    -2.7020    -2.4880 c3         1 AKE       0.599000
     24 O3          12.2280    -3.3840    -1.5550 os         1 AKE      -0.515000
     25 O4          11.3220    -3.2980    -3.6040 os         1 AKE      -0.454000
     26 C20         10.8450    -2.5570    -4.7490 c3         1 AKE       0.177300
     27 C21          9.3170    -2.5590    -4.7210 c3         1 AKE      -0.093400
     28 C22          8.7670    -2.4190    -3.3030 c3         1 AKE      -0.083400
     29 C23          7.2620    -2.4200    -3.3040 c3         1 AKE      -0.076400
     30 C24          6.7400    -2.3220    -1.8750 c3         1 AKE      -0.077400
     31 C25          5.2110    -2.3420    -1.8480 c3         1 AKE      -0.066700
     32 C26          4.6640    -3.6310    -2.4610 c3         1 AKE      -0.090600
     33 C27          4.7180    -2.2000    -0.4120 c3         1 AKE      -0.090600
     34 C28         11.4020    -3.2350    -6.0030 c3         1 AKE      -0.148400
     35 C29         12.9110    -3.1810    -5.9860 c3         1 AKE       0.588000
     36 O5          13.5820    -2.6300    -5.1110 os         1 AKE      -0.511000
     37 O6          13.4960    -3.7660    -7.0490 oh         1 AKE      -0.615000
     38 H           13.0090    -1.7290     3.3440 ho         1 AKE       0.461000
     39 H1          13.6530    -3.6120     2.3320 h1         1 AKE       0.048700
     40 H2          15.8500    -4.0900     1.7660 hc         1 AKE       0.051700
     41 H3          16.2870    -2.4200     1.4850 hc         1 AKE       0.051700
     42 H4          15.8440    -3.6970     4.2350 hc         1 AKE       0.048200
     43 H5          16.1770    -1.9770     3.9700 hc         1 AKE       0.048200
     44 H6          18.2550    -2.4870     2.8360 hc         1 AKE       0.039200
     45 H7          18.0510    -4.2180     3.1380 hc         1 AKE       0.039200
     46 H8          17.9350    -3.7640     5.6060 hc         1 AKE       0.040700
     47 H9          18.1640    -2.0450     5.3080 hc         1 AKE       0.040700
     48 H10         20.1420    -4.2590     4.5580 hc         1 AKE       0.045700
     49 H11         20.4000    -1.2100     4.3300 hc         1 AKE       0.032700
     50 H12         20.3020    -2.3360     2.9690 hc         1 AKE       0.032700
     51 H13         21.7030    -2.3800     4.0220 hc         1 AKE       0.032700
     52 H14         20.2640    -2.1170     6.7470 hc         1 AKE       0.032700
     53 H15         21.5420    -3.2850     6.3620 hc         1 AKE       0.032700
     54 H16         19.9920    -3.8490     7.0080 hc         1 AKE       0.032700
     55 H17         14.0400    -2.6400     0.0790 hc         1 AKE       0.098700
     56 H18         14.3970    -1.0460     0.8290 hc         1 AKE       0.098700
     57 H19         13.3960    -1.2810    -1.1350 h1         1 AKE       0.075700
     58 H20         12.1480     1.3550    -1.9390 hc         1 AKE       0.060200
     59 H21         13.1030     1.2940    -0.4630 hc         1 AKE       0.060200
     60 H22         13.8650     0.4290    -3.3120 hc         1 AKE       0.048700
     61 H23         14.6810    -0.3090    -1.9400 hc         1 AKE       0.048700
     62 H24         15.4130     1.8200    -1.1540 hc         1 AKE       0.042200
     63 H25         14.8230     2.5730    -2.6630 hc         1 AKE       0.042200
     64 H26         16.0390     0.7600    -3.9860 hc         1 AKE       0.043200
     65 H27         16.6730     0.0900    -2.4980 hc         1 AKE       0.043200
     66 H28         17.1540     2.9250    -3.4900 hc         1 AKE       0.045700
     67 H29         18.2850     1.4100    -1.0660 hc         1 AKE       0.033367
     68 H30         17.1720     2.7760    -0.9820 hc         1 AKE       0.033367
     69 H31         18.7890     3.0360    -1.5970 hc         1 AKE       0.033367
     70 H32         19.0120     0.4870    -3.3630 hc         1 AKE       0.033367
     71 H33         19.4650     2.1240    -3.8830 hc         1 AKE       0.033367
     72 H34         18.3090     1.1730    -4.8360 hc         1 AKE       0.033367
     73 H35         12.4550    -0.9240    -3.3350 hc         1 AKE       0.109700
     74 H36         10.8650    -0.7300    -2.5950 hc         1 AKE       0.109700
     75 H37         11.1810    -1.5170    -4.7520 h1         1 AKE       0.076700
     76 H38          8.9410    -1.7450    -5.3540 hc         1 AKE       0.058200
     77 H39          8.9360    -3.4940    -5.1490 hc         1 AKE       0.058200
     78 H40          9.1040    -1.4920    -2.8410 hc         1 AKE       0.046700
     79 H41          9.1100    -3.2540    -2.6790 hc         1 AKE       0.046700
     80 H42          6.9390    -3.3490    -3.7780 hc         1 AKE       0.041200
     81 H43          6.8850    -1.5830    -3.9010 hc         1 AKE       0.041200
     82 H44          7.1110    -1.3970    -1.4110 hc         1 AKE       0.044200
     83 H45          7.1390    -3.1510    -1.2740 hc         1 AKE       0.044200
     84 H46          4.8410    -1.4880    -2.4300 hc         1 AKE       0.043700
     85 H47          5.0410    -4.5070    -1.9210 hc         1 AKE       0.034200
     86 H48          4.9480    -3.7380    -3.5120 hc         1 AKE       0.034200
     87 H49          3.5720    -3.6440    -2.4320 hc         1 AKE       0.034200
     88 H50          5.0700    -3.0340     0.2060 hc         1 AKE       0.034200
     89 H51          3.6250    -2.1900    -0.3830 hc         1 AKE       0.034200
     90 H52          5.0800    -1.2690     0.0360 hc         1 AKE       0.034200
     91 H53         11.0400    -2.7120    -6.8950 hc         1 AKE       0.092700
     92 H54         11.0870    -4.2840    -6.0350 hc         1 AKE       0.092700
     93 H55         12.8880    -4.1650    -7.7000 ho         1 AKE       0.468000
@<TRIPOS>BOND
     1     1     2 1   
     2     1    38 1   
     3     2     3 1   
     4     2    10 1   
     5     2    39 1   
     6     3     4 1   
     7     3    40 1   
     8     3    41 1   
     9     4     5 1   
    10     4    42 1   
    11     4    43 1   
    12     5     6 1   
    13     5    44 1   
    14     5    45 1   
    15     6     7 1   
    16     6    46 1   
    17     6    47 1   
    18     7     8 1   
    19     7     9 1   
    20     7    48 1   
    21     8    49 1   
    22     8    50 1   
    23     8    51 1   
    24     9    52 1   
    25     9    53 1   
    26     9    54 1   
    27    10    11 1   
    28    10    55 1   
    29    10    56 1   
    30    11    12 1   
    31    11    12 1   
    32    11    13 1   
    33    13    14 1   
    34    14    15 1   
    35    14    22 1   
    36    14    57 1   
    37    15    16 1   
    38    15    58 1   
    39    15    59 1   
    40    16    17 1   
    41    16    60 1   
    42    16    61 1   
    43    17    18 1   
    44    17    62 1   
    45    17    63 1   
    46    18    19 1   
    47    18    64 1   
    48    18    65 1   
    49    19    20 1   
    50    19    21 1   
    51    19    66 1   
    52    20    67 1   
    53    20    68 1   
    54    20    69 1   
    55    21    70 1   
    56    21    71 1   
    57    21    72 1   
    58    22    23 1   
    59    22    73 1   
    60    22    74 1   
    61    23    24 1   
    62    23    24 1   
    63    23    25 1   
    64    25    26 1   
    65    26    27 1   
    66    26    34 1   
    67    26    75 1   
    68    27    28 1   
    69    27    76 1   
    70    27    77 1   
    71    28    29 1   
    72    28    78 1   
    73    28    79 1   
    74    29    30 1   
    75    29    80 1   
    76    29    81 1   
    77    30    31 1   
    78    30    82 1   
    79    30    83 1   
    80    31    32 1   
    81    31    33 1   
    82    31    84 1   
    83    32    85 1   
    84    32    86 1   
    85    32    87 1   
    86    33    88 1   
    87    33    89 1   
    88    33    90 1   
    89    34    35 1   
    90    34    91 1   
    91    34    92 1   
    92    35    36 1   
    93    35    36 1   
    94    35    37 1   
    95    37    93 1   
@<TRIPOS>SUBSTRUCTURE
     1 AKE         1 TEMP              0 ****  ****    0 ROOT
